
Spectre (R) Circuit Simulator
Version 24.1.0.288.isr5 64bit -- 3 Apr 2025
Copyright (C) 1989-2025 Cadence Design Systems, Inc. All rights reserved worldwide. Cadence and Spectre are registered trademarks of Cadence Design Systems, Inc. All others are the property of their respective holders.

Includes RSA BSAFE(R) Cryptographic or Security Protocol Software from RSA Security, Inc.

User: saul   Host: edatools   HostID: 11AC0200   PID: 8183
Memory  available: 25.2298 GB  physical: 27.3104 GB
Linux   : Rocky Linux release 8.10 (Green Obsidian)
CPU Type: 11th Gen Intel(R) Core(TM) i7-11700K @ 3.60GHz
All processors running at 3600.0 MHz
        Socket: Processors
        0:       0,  1,  2,  3,  4,  5,  6,  7,  8,  9
                10, 11, 12, 13, 14, 15
        
System load averages (1min, 5min, 15min) : 2.3 %, 2.7 %, 2.9 %
HPC is enabled


Simulating `input.scs' on edatools at 12:35:42 PM, Mon Nov 17, 2025 (process id: 8183).
Current working directory: /home/saul/projects/FIL3601/Sim/ex2/spectre/schematic/distributed/job003/netlist
Command line:
    /opt/tools/cadence/installs/SPECTRE241/tools/bin/spectre -64  \
        input.scs +escchars +log ../psf/spectre.out -format psfxl -raw  \
        ../psf +aps +mt +lqtimeout 900 -maxw 5 -maxn 5 -env ade  \
        +adespetkn=adespe

Licensing Information:
[12:35:42.188809] Configured Lic search path (24.01-s002): 3000@lic08.ug.kth.se

Licensing Information:
[12:35:42.054265] Periodic Lic check successful

Loading /opt/tools/cadence/installs/SPECTRE241/tools.lnx86/cmi/lib/64bit/5.0/libinfineon_sh.so ...
Loading /opt/tools/cadence/installs/SPECTRE241/tools.lnx86/cmi/lib/64bit/5.0/libphilips_I_sh.so ...
Loading /opt/tools/cadence/installs/SPECTRE241/tools.lnx86/cmi/lib/64bit/5.0/libphilips_sh.so ...
Loading /opt/tools/cadence/installs/SPECTRE241/tools.lnx86/cmi/lib/64bit/5.0/libsparam_sh.so ...
Loading /opt/tools/cadence/installs/SPECTRE241/tools.lnx86/cmi/lib/64bit/5.0/libstmodels_sh.so ...
Reading file:  /home/saul/projects/FIL3601/Sim/ex2/spectre/schematic/distributed/job003/netlist/input.scs
Reading file:  /opt/tools/cadence/installs/SPECTRE241/tools.lnx86/spectre/etc/configs/spectre.cfg
Reading file:  /opt/pdk/xfab/XKIT/xh018/cadence/v10_0/spectre/v10_0_2/lpmos/config.scs
Reading file:  /opt/pdk/xfab/XKIT/xh018/cadence/v10_0/spectre/v10_0_2/lpmos/param.scs
Reading file:  /opt/pdk/xfab/XKIT/xh018/cadence/v10_0/spectre/v10_0_2/lpmos/bip.scs
Reading file:  /opt/pdk/xfab/XKIT/xh018/cadence/v10_0/spectre/v10_0_2/lpmos/models/bip/tm_bip.scs
Reading file:  /opt/pdk/xfab/XKIT/xh018/cadence/v10_0/spectre/v10_0_2/lpmos/models/bip/qpva.scs
Reading file:  /opt/pdk/xfab/XKIT/xh018/cadence/v10_0/spectre/v10_0_2/lpmos/models/bip/qpvb.scs
Reading file:  /opt/pdk/xfab/XKIT/xh018/cadence/v10_0/spectre/v10_0_2/lpmos/models/bip/qpvc.scs
Reading file:  /opt/pdk/xfab/XKIT/xh018/cadence/v10_0/spectre/v10_0_2/lpmos/models/bip/qpva3.scs
Reading file:  /opt/pdk/xfab/XKIT/xh018/cadence/v10_0/spectre/v10_0_2/lpmos/models/bip/qpvb3.scs
Reading file:  /opt/pdk/xfab/XKIT/xh018/cadence/v10_0/spectre/v10_0_2/lpmos/models/bip/qpvc3.scs
Reading file:  /opt/pdk/xfab/XKIT/xh018/cadence/v10_0/spectre/v10_0_2/lpmos/models/bip/qnva.scs
Reading file:  /opt/pdk/xfab/XKIT/xh018/cadence/v10_0/spectre/v10_0_2/lpmos/models/bip/qnvb.scs
Reading file:  /opt/pdk/xfab/XKIT/xh018/cadence/v10_0/spectre/v10_0_2/lpmos/models/bip/qnvba.scs
Reading file:  /opt/pdk/xfab/XKIT/xh018/cadence/v10_0/spectre/v10_0_2/lpmos/models/bip/qnvbb.scs
Reading file:  /opt/pdk/xfab/XKIT/xh018/cadence/v10_0/spectre/v10_0_2/lpmos/models/bip/qnvc.scs
Reading file:  /opt/pdk/xfab/XKIT/xh018/cadence/v10_0/spectre/v10_0_2/lpmos/models/bip/qnvca.scs
Reading file:  /opt/pdk/xfab/XKIT/xh018/cadence/v10_0/spectre/v10_0_2/lpmos/models/bip/qnvcb.scs
Reading file:  /opt/pdk/xfab/XKIT/xh018/cadence/v10_0/spectre/v10_0_2/lpmos/models/bip/qpvhscr.scs
Reading file:  /opt/pdk/xfab/XKIT/xh018/cadence/v10_0/spectre/v10_0_2/lpmos/models/bip/qpvascr.scs
Reading file:  /opt/pdk/xfab/XKIT/xh018/cadence/v10_0/spectre/v10_0_2/lpmos/models/bip/qpvhbscr.scs
Reading file:  /opt/pdk/xfab/XKIT/xh018/cadence/v10_0/spectre/v10_0_2/lpmos/models/bip/qpv_pa.scs
Reading file:  /opt/pdk/xfab/XKIT/xh018/cadence/v10_0/spectre/v10_0_2/lpmos/models/bip/qpv_pb.scs
Reading file:  /opt/pdk/xfab/XKIT/xh018/cadence/v10_0/spectre/v10_0_2/lpmos/models/bip/qpv_pc.scs
Reading file:  /opt/pdk/xfab/XKIT/xh018/cadence/v10_0/spectre/v10_0_2/lpmos/models/bip/qpv_pd.scs
Reading file:  /opt/pdk/xfab/XKIT/xh018/cadence/v10_0/spectre/v10_0_2/lpmos/models/bip/qpv_pe.scs
Reading file:  /opt/pdk/xfab/XKIT/xh018/cadence/v10_0/spectre/v10_0_2/lpmos/models/bip/qpv_pf.scs
Reading file:  /opt/pdk/xfab/XKIT/xh018/cadence/v10_0/spectre/v10_0_2/lpmos/models/bip/qpl_pa.scs
Reading file:  /opt/pdk/xfab/XKIT/xh018/cadence/v10_0/spectre/v10_0_2/lpmos/models/bip/qpl_pb.scs
Reading file:  /opt/pdk/xfab/XKIT/xh018/cadence/v10_0/spectre/v10_0_2/lpmos/models/bip/qpl_pc.scs
Reading file:  /opt/pdk/xfab/XKIT/xh018/cadence/v10_0/spectre/v10_0_2/lpmos/models/bip/qpl_pd.scs
Reading file:  /opt/pdk/xfab/XKIT/xh018/cadence/v10_0/spectre/v10_0_2/lpmos/models/bip/qpl_pe.scs
Reading file:  /opt/pdk/xfab/XKIT/xh018/cadence/v10_0/spectre/v10_0_2/lpmos/models/bip/qpl_pf.scs
Reading file:  /opt/pdk/xfab/XKIT/xh018/cadence/v10_0/spectre/v10_0_2/lpmos/models/bip/qnl_pa.scs
Reading file:  /opt/pdk/xfab/XKIT/xh018/cadence/v10_0/spectre/v10_0_2/lpmos/models/bip/qnl_pb.scs
Reading file:  /opt/pdk/xfab/XKIT/xh018/cadence/v10_0/spectre/v10_0_2/lpmos/models/bip/qnl_pc.scs
Reading file:  /opt/pdk/xfab/XKIT/xh018/cadence/v10_0/spectre/v10_0_2/lpmos/models/bip/qnl_pd.scs
Reading file:  /opt/pdk/xfab/XKIT/xh018/cadence/v10_0/spectre/v10_0_2/lpmos/models/bip/qnl_pe.scs
Reading file:  /opt/pdk/xfab/XKIT/xh018/cadence/v10_0/spectre/v10_0_2/lpmos/models/bip/qnl_pf.scs
Reading file:  /opt/pdk/xfab/XKIT/xh018/cadence/v10_0/spectre/v10_0_2/lpmos/cap.scs
Reading file:  /opt/pdk/xfab/XKIT/xh018/cadence/v10_0/spectre/v10_0_2/lpmos/models/cap/tm_cap.scs
Reading file:  /opt/pdk/xfab/XKIT/xh018/cadence/v10_0/spectre/v10_0_2/lpmos/models/cap/csandwt3.scs
Reading file:  /opt/pdk/xfab/XKIT/xh018/cadence/v10_0/spectre/v10_0_2/lpmos/models/cap/csandwt4.scs
Reading file:  /opt/pdk/xfab/XKIT/xh018/cadence/v10_0/spectre/v10_0_2/lpmos/models/cap/csandwt5.scs
Reading file:  /opt/pdk/xfab/XKIT/xh018/cadence/v10_0/spectre/v10_0_2/lpmos/models/cap/csf2p.scs
Reading file:  /opt/pdk/xfab/XKIT/xh018/cadence/v10_0/spectre/v10_0_2/lpmos/models/cap/csf3p.scs
Reading file:  /opt/pdk/xfab/XKIT/xh018/cadence/v10_0/spectre/v10_0_2/lpmos/models/cap/csf3.scs
Reading file:  /opt/pdk/xfab/XKIT/xh018/cadence/v10_0/spectre/v10_0_2/lpmos/models/cap/csf4.scs
Reading file:  /opt/pdk/xfab/XKIT/xh018/cadence/v10_0/spectre/v10_0_2/lpmos/models/cap/csf5.scs
Reading file:  /opt/pdk/xfab/XKIT/xh018/cadence/v10_0/spectre/v10_0_2/lpmos/models/cap/csft4.scs
Reading file:  /opt/pdk/xfab/XKIT/xh018/cadence/v10_0/spectre/v10_0_2/lpmos/models/cap/csft5.scs
Reading file:  /opt/pdk/xfab/XKIT/xh018/cadence/v10_0/spectre/v10_0_2/lpmos/models/cap/csft6.scs
Reading file:  /opt/pdk/xfab/XKIT/xh018/cadence/v10_0/spectre/v10_0_2/lpmos/models/cap/csf3a.scs
Reading file:  /opt/pdk/xfab/XKIT/xh018/cadence/v10_0/spectre/v10_0_2/lpmos/models/cap/csf4a.scs
Reading file:  /opt/pdk/xfab/XKIT/xh018/cadence/v10_0/spectre/v10_0_2/lpmos/models/cap/csf5a.scs
Reading file:  /opt/pdk/xfab/XKIT/xh018/cadence/v10_0/spectre/v10_0_2/lpmos/models/cap/csft4a.scs
Reading file:  /opt/pdk/xfab/XKIT/xh018/cadence/v10_0/spectre/v10_0_2/lpmos/models/cap/csft5a.scs
Reading file:  /opt/pdk/xfab/XKIT/xh018/cadence/v10_0/spectre/v10_0_2/lpmos/models/cap/csft6a.scs
Reading file:  /opt/pdk/xfab/XKIT/xh018/cadence/v10_0/spectre/v10_0_2/lpmos/models/cap/cif3a.scs
Reading file:  /opt/pdk/xfab/XKIT/xh018/cadence/v10_0/spectre/v10_0_2/lpmos/models/cap/cif4a.scs
Reading file:  /opt/pdk/xfab/XKIT/xh018/cadence/v10_0/spectre/v10_0_2/lpmos/models/cap/cif5a.scs
Reading file:  /opt/pdk/xfab/XKIT/xh018/cadence/v10_0/spectre/v10_0_2/lpmos/models/cap/cift4a.scs
Reading file:  /opt/pdk/xfab/XKIT/xh018/cadence/v10_0/spectre/v10_0_2/lpmos/models/cap/cift5a.scs
Reading file:  /opt/pdk/xfab/XKIT/xh018/cadence/v10_0/spectre/v10_0_2/lpmos/models/cap/cift6a.scs
Reading file:  /opt/pdk/xfab/XKIT/xh018/cadence/v10_0/spectre/v10_0_2/lpmos/models/cap/cmm3.scs
Reading file:  /opt/pdk/xfab/XKIT/xh018/cadence/v10_0/spectre/v10_0_2/lpmos/models/cap/cmm4t.scs
Reading file:  /opt/pdk/xfab/XKIT/xh018/cadence/v10_0/spectre/v10_0_2/lpmos/models/cap/cmm4.scs
Reading file:  /opt/pdk/xfab/XKIT/xh018/cadence/v10_0/spectre/v10_0_2/lpmos/models/cap/cmm5t.scs
Reading file:  /opt/pdk/xfab/XKIT/xh018/cadence/v10_0/spectre/v10_0_2/lpmos/models/cap/cmm6t.scs
Reading file:  /opt/pdk/xfab/XKIT/xh018/cadence/v10_0/spectre/v10_0_2/lpmos/models/cap/cdmm4.scs
Reading file:  /opt/pdk/xfab/XKIT/xh018/cadence/v10_0/spectre/v10_0_2/lpmos/models/cap/cdmm4t.scs
Reading file:  /opt/pdk/xfab/XKIT/xh018/cadence/v10_0/spectre/v10_0_2/lpmos/models/cap/ctmm5.scs
Reading file:  /opt/pdk/xfab/XKIT/xh018/cadence/v10_0/spectre/v10_0_2/lpmos/models/cap/ctmm5t.scs
Reading file:  /opt/pdk/xfab/XKIT/xh018/cadence/v10_0/spectre/v10_0_2/lpmos/models/cap/cmmh3.scs
Reading file:  /opt/pdk/xfab/XKIT/xh018/cadence/v10_0/spectre/v10_0_2/lpmos/models/cap/cmmh4t.scs
Reading file:  /opt/pdk/xfab/XKIT/xh018/cadence/v10_0/spectre/v10_0_2/lpmos/models/cap/cmmh4.scs
Reading file:  /opt/pdk/xfab/XKIT/xh018/cadence/v10_0/spectre/v10_0_2/lpmos/models/cap/cmmh5t.scs
Reading file:  /opt/pdk/xfab/XKIT/xh018/cadence/v10_0/spectre/v10_0_2/lpmos/models/cap/cmmh6t.scs
Reading file:  /opt/pdk/xfab/XKIT/xh018/cadence/v10_0/spectre/v10_0_2/lpmos/models/cap/cdmmh4.scs
Reading file:  /opt/pdk/xfab/XKIT/xh018/cadence/v10_0/spectre/v10_0_2/lpmos/models/cap/cdmmh4t.scs
Reading file:  /opt/pdk/xfab/XKIT/xh018/cadence/v10_0/spectre/v10_0_2/lpmos/models/cap/ctmmh5.scs
Reading file:  /opt/pdk/xfab/XKIT/xh018/cadence/v10_0/spectre/v10_0_2/lpmos/models/cap/ctmmh5t.scs
Reading file:  /opt/pdk/xfab/XKIT/xh018/cadence/v10_0/spectre/v10_0_2/lpmos/models/cap/mosvc.scs
Reading file:  /opt/pdk/xfab/XKIT/xh018/cadence/v10_0/spectre/v10_0_2/lpmos/models/cap/mosvc_pmos.scs
Reading file:  /opt/pdk/xfab/XKIT/xh018/cadence/v10_0/spectre/v10_0_2/lpmos/models/cap/mosvci.scs
Reading file:  /opt/pdk/xfab/XKIT/xh018/cadence/v10_0/spectre/v10_0_2/lpmos/models/cap/mosvci_nmos.scs
Reading file:  /opt/pdk/xfab/XKIT/xh018/cadence/v10_0/spectre/v10_0_2/lpmos/models/cap/mosvci_m.scs
Reading file:  /opt/pdk/xfab/XKIT/xh018/cadence/v10_0/spectre/v10_0_2/lpmos/models/cap/mosvc3.scs
Reading file:  /opt/pdk/xfab/XKIT/xh018/cadence/v10_0/spectre/v10_0_2/lpmos/models/cap/mosvc3_pmos.scs
Reading file:  /opt/pdk/xfab/XKIT/xh018/cadence/v10_0/spectre/v10_0_2/lpmos/models/cap/mosvc3i.scs
Reading file:  /opt/pdk/xfab/XKIT/xh018/cadence/v10_0/spectre/v10_0_2/lpmos/models/cap/mosvc3i_nmos.scs
Reading file:  /opt/pdk/xfab/XKIT/xh018/cadence/v10_0/spectre/v10_0_2/lpmos/models/cap/mosvc3i_m.scs
Reading file:  /opt/pdk/xfab/XKIT/xh018/cadence/v10_0/spectre/v10_0_2/lpmos/models/cap/cpod.scs
Reading file:  /opt/pdk/xfab/XKIT/xh018/cadence/v10_0/spectre/v10_0_2/lpmos/models/cap/cpod_i.scs
Reading file:  /opt/pdk/xfab/XKIT/xh018/cadence/v10_0/spectre/v10_0_2/lpmos/models/cap/cpodhv.scs
Reading file:  /opt/pdk/xfab/XKIT/xh018/cadence/v10_0/spectre/v10_0_2/lpmos/models/cap/cpodhv_i.scs
Reading file:  /opt/pdk/xfab/XKIT/xh018/cadence/v10_0/spectre/v10_0_2/lpmos/models/cap/cp1sub.scs
Reading file:  /opt/pdk/xfab/XKIT/xh018/cadence/v10_0/spectre/v10_0_2/lpmos/models/cap/cp1suba.scs
Reading file:  /opt/pdk/xfab/XKIT/xh018/cadence/v10_0/spectre/v10_0_2/lpmos/models/cap/cp1subp.scs
Reading file:  /opt/pdk/xfab/XKIT/xh018/cadence/v10_0/spectre/v10_0_2/lpmos/models/cap/tag_25v.scs
Reading file:  /opt/pdk/xfab/XKIT/xh018/cadence/v10_0/spectre/v10_0_2/lpmos/models/cap/tag_60v.scs
Reading file:  /opt/pdk/xfab/XKIT/xh018/cadence/v10_0/spectre/v10_0_2/lpmos/dio.scs
Reading file:  /opt/pdk/xfab/XKIT/xh018/cadence/v10_0/spectre/v10_0_2/lpmos/models/dio/tm_dio.scs
Reading file:  /opt/pdk/xfab/XKIT/xh018/cadence/v10_0/spectre/v10_0_2/lpmos/models/dio/dn.scs
Reading file:  /opt/pdk/xfab/XKIT/xh018/cadence/v10_0/spectre/v10_0_2/lpmos/models/dio/dp.scs
Reading file:  /opt/pdk/xfab/XKIT/xh018/cadence/v10_0/spectre/v10_0_2/lpmos/models/dio/dnw.scs
Reading file:  /opt/pdk/xfab/XKIT/xh018/cadence/v10_0/spectre/v10_0_2/lpmos/models/dio/dn3.scs
Reading file:  /opt/pdk/xfab/XKIT/xh018/cadence/v10_0/spectre/v10_0_2/lpmos/models/dio/dnn3.scs
Reading file:  /opt/pdk/xfab/XKIT/xh018/cadence/v10_0/spectre/v10_0_2/lpmos/models/dio/dp3.scs
Reading file:  /opt/pdk/xfab/XKIT/xh018/cadence/v10_0/spectre/v10_0_2/lpmos/models/dio/dnw3.scs
Reading file:  /opt/pdk/xfab/XKIT/xh018/cadence/v10_0/spectre/v10_0_2/lpmos/models/dio/ddnwmv.scs
Reading file:  /opt/pdk/xfab/XKIT/xh018/cadence/v10_0/spectre/v10_0_2/lpmos/models/dio/dpdnwmv.scs
Reading file:  /opt/pdk/xfab/XKIT/xh018/cadence/v10_0/spectre/v10_0_2/lpmos/models/dio/dipdnwmv.scs
Reading file:  /opt/pdk/xfab/XKIT/xh018/cadence/v10_0/spectre/v10_0_2/lpmos/models/dio/ddnw.scs
Reading file:  /opt/pdk/xfab/XKIT/xh018/cadence/v10_0/spectre/v10_0_2/lpmos/models/dio/ddnwa.scs
Reading file:  /opt/pdk/xfab/XKIT/xh018/cadence/v10_0/spectre/v10_0_2/lpmos/models/dio/dpdnw.scs
Reading file:  /opt/pdk/xfab/XKIT/xh018/cadence/v10_0/spectre/v10_0_2/lpmos/models/dio/dipdnw.scs
Reading file:  /opt/pdk/xfab/XKIT/xh018/cadence/v10_0/spectre/v10_0_2/lpmos/models/dio/dnhpw.scs
Reading file:  /opt/pdk/xfab/XKIT/xh018/cadence/v10_0/spectre/v10_0_2/lpmos/models/dio/dnhpwa.scs
Reading file:  /opt/pdk/xfab/XKIT/xh018/cadence/v10_0/spectre/v10_0_2/lpmos/models/dio/dphnw.scs
Reading file:  /opt/pdk/xfab/XKIT/xh018/cadence/v10_0/spectre/v10_0_2/lpmos/models/dio/dphnwa.scs
Reading file:  /opt/pdk/xfab/XKIT/xh018/cadence/v10_0/spectre/v10_0_2/lpmos/models/dio/dhpw.scs
Reading file:  /opt/pdk/xfab/XKIT/xh018/cadence/v10_0/spectre/v10_0_2/lpmos/models/dio/dhnw.scs
Reading file:  /opt/pdk/xfab/XKIT/xh018/cadence/v10_0/spectre/v10_0_2/lpmos/models/dio/dndf.scs
Reading file:  /opt/pdk/xfab/XKIT/xh018/cadence/v10_0/spectre/v10_0_2/lpmos/models/dio/dpdwhn.scs
Reading file:  /opt/pdk/xfab/XKIT/xh018/cadence/v10_0/spectre/v10_0_2/lpmos/models/dio/dwhn.scs
Reading file:  /opt/pdk/xfab/XKIT/xh018/cadence/v10_0/spectre/v10_0_2/lpmos/models/dio/dpwhn.scs
Reading file:  /opt/pdk/xfab/XKIT/xh018/cadence/v10_0/spectre/v10_0_2/lpmos/models/dio/dpndf.scs
Reading file:  /opt/pdk/xfab/XKIT/xh018/cadence/v10_0/spectre/v10_0_2/lpmos/models/dio/dpdddnw.scs
Reading file:  /opt/pdk/xfab/XKIT/xh018/cadence/v10_0/spectre/v10_0_2/lpmos/models/dio/ddpldnw.scs
Reading file:  /opt/pdk/xfab/XKIT/xh018/cadence/v10_0/spectre/v10_0_2/lpmos/models/dio/dn3dpl.scs
Reading file:  /opt/pdk/xfab/XKIT/xh018/cadence/v10_0/spectre/v10_0_2/lpmos/models/dio/dbn.scs
Reading file:  /opt/pdk/xfab/XKIT/xh018/cadence/v10_0/spectre/v10_0_2/lpmos/models/dio/dpol.scs
Reading file:  /opt/pdk/xfab/XKIT/xh018/cadence/v10_0/spectre/v10_0_2/lpmos/models/dio/dnpdd_scr.scs
Reading file:  /opt/pdk/xfab/XKIT/xh018/cadence/v10_0/spectre/v10_0_2/lpmos/models/dio/dpdd_scr.scs
Reading file:  /opt/pdk/xfab/XKIT/xh018/cadence/v10_0/spectre/v10_0_2/lpmos/models/dio/dsb.scs
Reading file:  /opt/pdk/xfab/XKIT/xh018/cadence/v10_0/spectre/v10_0_2/lpmos/models/dio/dsba.scs
Reading file:  /opt/pdk/xfab/XKIT/xh018/cadence/v10_0/spectre/v10_0_2/lpmos/models/dio/dsba_qp1.scs
Reading file:  /opt/pdk/xfab/XKIT/xh018/cadence/v10_0/spectre/v10_0_2/lpmos/models/dio/dnp20.scs
Reading file:  /opt/pdk/xfab/XKIT/xh018/cadence/v10_0/spectre/v10_0_2/lpmos/models/dio/dpp20.scs
Reading file:  /opt/pdk/xfab/XKIT/xh018/cadence/v10_0/spectre/v10_0_2/lpmos/models/dio/dn3sci.scs
Reading file:  /opt/pdk/xfab/XKIT/xh018/cadence/v10_0/spectre/v10_0_2/lpmos/models/dio/dscidnwmv.scs
Reading file:  /opt/pdk/xfab/XKIT/xh018/cadence/v10_0/spectre/v10_0_2/lpmos/mos.scs
Reading file:  /opt/pdk/xfab/XKIT/xh018/cadence/v10_0/spectre/v10_0_2/lpmos/models/mos/tm_mos.scs
Reading file:  /opt/pdk/xfab/XKIT/xh018/cadence/v10_0/spectre/v10_0_2/lpmos/models/mos/ne.scs
Reading file:  /opt/pdk/xfab/XKIT/xh018/cadence/v10_0/spectre/v10_0_2/lpmos/models/mos/nei.scs
Reading file:  /opt/pdk/xfab/XKIT/xh018/cadence/v10_0/spectre/v10_0_2/lpmos/models/mos/nei_6.scs
Reading file:  /opt/pdk/xfab/XKIT/xh018/cadence/v10_0/spectre/v10_0_2/lpmos/models/mos/nei_m_6.scs
Reading file:  /opt/pdk/xfab/XKIT/xh018/cadence/v10_0/spectre/v10_0_2/lpmos/models/mos/nei_a_6.scs
Reading file:  /opt/pdk/xfab/XKIT/xh018/cadence/v10_0/spectre/v10_0_2/lpmos/models/mos/pe.scs
Reading file:  /opt/pdk/xfab/XKIT/xh018/cadence/v10_0/spectre/v10_0_2/lpmos/models/mos/pe_5.scs
Reading file:  /opt/pdk/xfab/XKIT/xh018/cadence/v10_0/spectre/v10_0_2/lpmos/models/mos/pei.scs
Reading file:  /opt/pdk/xfab/XKIT/xh018/cadence/v10_0/spectre/v10_0_2/lpmos/models/mos/pei_5.scs
Reading file:  /opt/pdk/xfab/XKIT/xh018/cadence/v10_0/spectre/v10_0_2/lpmos/models/mos/pei_m_5.scs
Reading file:  /opt/pdk/xfab/XKIT/xh018/cadence/v10_0/spectre/v10_0_2/lpmos/models/mos/pei_a_5.scs
Reading file:  /opt/pdk/xfab/XKIT/xh018/cadence/v10_0/spectre/v10_0_2/lpmos/models/mos/nel.scs
Reading file:  /opt/pdk/xfab/XKIT/xh018/cadence/v10_0/spectre/v10_0_2/lpmos/models/mos/neli.scs
Reading file:  /opt/pdk/xfab/XKIT/xh018/cadence/v10_0/spectre/v10_0_2/lpmos/models/mos/neli_6.scs
Reading file:  /opt/pdk/xfab/XKIT/xh018/cadence/v10_0/spectre/v10_0_2/lpmos/models/mos/neli_m_6.scs
Reading file:  /opt/pdk/xfab/XKIT/xh018/cadence/v10_0/spectre/v10_0_2/lpmos/models/mos/pel.scs
Reading file:  /opt/pdk/xfab/XKIT/xh018/cadence/v10_0/spectre/v10_0_2/lpmos/models/mos/pel_5.scs
Reading file:  /opt/pdk/xfab/XKIT/xh018/cadence/v10_0/spectre/v10_0_2/lpmos/models/mos/peli.scs
Reading file:  /opt/pdk/xfab/XKIT/xh018/cadence/v10_0/spectre/v10_0_2/lpmos/models/mos/peli_5.scs
Reading file:  /opt/pdk/xfab/XKIT/xh018/cadence/v10_0/spectre/v10_0_2/lpmos/models/mos/peli_m_5.scs
Reading file:  /opt/pdk/xfab/XKIT/xh018/cadence/v10_0/spectre/v10_0_2/lpmos/models/mos/nn3.scs
Reading file:  /opt/pdk/xfab/XKIT/xh018/cadence/v10_0/spectre/v10_0_2/lpmos/models/mos/ne3.scs
Reading file:  /opt/pdk/xfab/XKIT/xh018/cadence/v10_0/spectre/v10_0_2/lpmos/models/mos/ne3i.scs
Reading file:  /opt/pdk/xfab/XKIT/xh018/cadence/v10_0/spectre/v10_0_2/lpmos/models/mos/ne3i_6.scs
Reading file:  /opt/pdk/xfab/XKIT/xh018/cadence/v10_0/spectre/v10_0_2/lpmos/models/mos/ne3i_m_6.scs
Reading file:  /opt/pdk/xfab/XKIT/xh018/cadence/v10_0/spectre/v10_0_2/lpmos/models/mos/ne3i_a_6.scs
Reading file:  /opt/pdk/xfab/XKIT/xh018/cadence/v10_0/spectre/v10_0_2/lpmos/models/mos/pe3.scs
Reading file:  /opt/pdk/xfab/XKIT/xh018/cadence/v10_0/spectre/v10_0_2/lpmos/models/mos/pe3_5.scs
Reading file:  /opt/pdk/xfab/XKIT/xh018/cadence/v10_0/spectre/v10_0_2/lpmos/models/mos/pe3i.scs
Reading file:  /opt/pdk/xfab/XKIT/xh018/cadence/v10_0/spectre/v10_0_2/lpmos/models/mos/pe3i_5.scs
Reading file:  /opt/pdk/xfab/XKIT/xh018/cadence/v10_0/spectre/v10_0_2/lpmos/models/mos/pe3i_m_5.scs
Reading file:  /opt/pdk/xfab/XKIT/xh018/cadence/v10_0/spectre/v10_0_2/lpmos/models/mos/pe3i_a_5.scs
Reading file:  /opt/pdk/xfab/XKIT/xh018/cadence/v10_0/spectre/v10_0_2/lpmos/models/mos/pe3ln.scs
Reading file:  /opt/pdk/xfab/XKIT/xh018/cadence/v10_0/spectre/v10_0_2/lpmos/models/mos/pe3ln_5.scs
Reading file:  /opt/pdk/xfab/XKIT/xh018/cadence/v10_0/spectre/v10_0_2/lpmos/models/mos/pe3lni.scs
Reading file:  /opt/pdk/xfab/XKIT/xh018/cadence/v10_0/spectre/v10_0_2/lpmos/models/mos/pe3lni_5.scs
Reading file:  /opt/pdk/xfab/XKIT/xh018/cadence/v10_0/spectre/v10_0_2/lpmos/models/mos/pe3lni_m_5.scs
Reading file:  /opt/pdk/xfab/XKIT/xh018/cadence/v10_0/spectre/v10_0_2/lpmos/models/mos/nd3.scs
Reading file:  /opt/pdk/xfab/XKIT/xh018/cadence/v10_0/spectre/v10_0_2/lpmos/models/mos/nd3_mos1.scs
Reading file:  /opt/pdk/xfab/XKIT/xh018/cadence/v10_0/spectre/v10_0_2/lpmos/models/mos/nd3_mos2.scs
Reading file:  /opt/pdk/xfab/XKIT/xh018/cadence/v10_0/spectre/v10_0_2/lpmos/models/mos/nd3i.scs
Reading file:  /opt/pdk/xfab/XKIT/xh018/cadence/v10_0/spectre/v10_0_2/lpmos/models/mos/nd3i_mos1.scs
Reading file:  /opt/pdk/xfab/XKIT/xh018/cadence/v10_0/spectre/v10_0_2/lpmos/models/mos/nd3i_mos2.scs
Reading file:  /opt/pdk/xfab/XKIT/xh018/cadence/v10_0/spectre/v10_0_2/lpmos/models/mos/nd3i_6.scs
Reading file:  /opt/pdk/xfab/XKIT/xh018/cadence/v10_0/spectre/v10_0_2/lpmos/models/mos/nd3i_m_6.scs
Reading file:  /opt/pdk/xfab/XKIT/xh018/cadence/v10_0/spectre/v10_0_2/lpmos/models/mos/nelna.scs
Reading file:  /opt/pdk/xfab/XKIT/xh018/cadence/v10_0/spectre/v10_0_2/lpmos/models/mos/nelnai.scs
Reading file:  /opt/pdk/xfab/XKIT/xh018/cadence/v10_0/spectre/v10_0_2/lpmos/models/mos/nelnai_6.scs
Reading file:  /opt/pdk/xfab/XKIT/xh018/cadence/v10_0/spectre/v10_0_2/lpmos/models/mos/nelnai_m_6.scs
Reading file:  /opt/pdk/xfab/XKIT/xh018/cadence/v10_0/spectre/v10_0_2/lpmos/models/mos/ne3lna.scs
Reading file:  /opt/pdk/xfab/XKIT/xh018/cadence/v10_0/spectre/v10_0_2/lpmos/models/mos/ne3lnai.scs
Reading file:  /opt/pdk/xfab/XKIT/xh018/cadence/v10_0/spectre/v10_0_2/lpmos/models/mos/ne3lnai_6.scs
Reading file:  /opt/pdk/xfab/XKIT/xh018/cadence/v10_0/spectre/v10_0_2/lpmos/models/mos/ne3lnai_m_6.scs
Reading file:  /opt/pdk/xfab/XKIT/xh018/cadence/v10_0/spectre/v10_0_2/lpmos/models/mos/pe3lna.scs
Reading file:  /opt/pdk/xfab/XKIT/xh018/cadence/v10_0/spectre/v10_0_2/lpmos/models/mos/pe3lna_5.scs
Reading file:  /opt/pdk/xfab/XKIT/xh018/cadence/v10_0/spectre/v10_0_2/lpmos/models/mos/pe3lnai.scs
Reading file:  /opt/pdk/xfab/XKIT/xh018/cadence/v10_0/spectre/v10_0_2/lpmos/models/mos/pe3lnai_5.scs
Reading file:  /opt/pdk/xfab/XKIT/xh018/cadence/v10_0/spectre/v10_0_2/lpmos/models/mos/pe3lnai_m_5.scs
Reading file:  /opt/pdk/xfab/XKIT/xh018/cadence/v10_0/spectre/v10_0_2/lpmos/models/mos/nmma.scs
Reading file:  /opt/pdk/xfab/XKIT/xh018/cadence/v10_0/spectre/v10_0_2/lpmos/models/mos/jf_nmma.scs
Reading file:  /opt/pdk/xfab/XKIT/xh018/cadence/v10_0/spectre/v10_0_2/lpmos/models/mos/nmma_bjt.scs
Reading file:  /opt/pdk/xfab/XKIT/xh018/cadence/v10_0/spectre/v10_0_2/lpmos/models/mos/pmma.scs
Reading file:  /opt/pdk/xfab/XKIT/xh018/cadence/v10_0/spectre/v10_0_2/lpmos/models/mos/jf_pmma.scs
Reading file:  /opt/pdk/xfab/XKIT/xh018/cadence/v10_0/spectre/v10_0_2/lpmos/models/mos/pmma_bjt.scs
Reading file:  /opt/pdk/xfab/XKIT/xh018/cadence/v10_0/spectre/v10_0_2/lpmos/models/mos/nedi.scs
Reading file:  /opt/pdk/xfab/XKIT/xh018/cadence/v10_0/spectre/v10_0_2/lpmos/models/mos/nedi_bjt.scs
Reading file:  /opt/pdk/xfab/XKIT/xh018/cadence/v10_0/spectre/v10_0_2/lpmos/models/mos/nedia.scs
Reading file:  /opt/pdk/xfab/XKIT/xh018/cadence/v10_0/spectre/v10_0_2/lpmos/models/mos/nedia_bjt.scs
Reading file:  /opt/pdk/xfab/XKIT/xh018/cadence/v10_0/spectre/v10_0_2/lpmos/models/mos/ped2.scs
Reading file:  /opt/pdk/xfab/XKIT/xh018/cadence/v10_0/spectre/v10_0_2/lpmos/models/mos/ped2_bjt.scs
Reading file:  /opt/pdk/xfab/XKIT/xh018/cadence/v10_0/spectre/v10_0_2/lpmos/models/mos/ped.scs
Reading file:  /opt/pdk/xfab/XKIT/xh018/cadence/v10_0/spectre/v10_0_2/lpmos/models/mos/ped_bjt.scs
Reading file:  /opt/pdk/xfab/XKIT/xh018/cadence/v10_0/spectre/v10_0_2/lpmos/models/mos/nhv.scs
Reading file:  /opt/pdk/xfab/XKIT/xh018/cadence/v10_0/spectre/v10_0_2/lpmos/models/mos/nhv_mos2.scs
Reading file:  /opt/pdk/xfab/XKIT/xh018/cadence/v10_0/spectre/v10_0_2/lpmos/models/mos/nhv_bjt.scs
Reading file:  /opt/pdk/xfab/XKIT/xh018/cadence/v10_0/spectre/v10_0_2/lpmos/models/mos/nhhv.scs
Reading file:  /opt/pdk/xfab/XKIT/xh018/cadence/v10_0/spectre/v10_0_2/lpmos/models/mos/nhhv_mos2.scs
Reading file:  /opt/pdk/xfab/XKIT/xh018/cadence/v10_0/spectre/v10_0_2/lpmos/models/mos/nhhv_bjt.scs
Reading file:  /opt/pdk/xfab/XKIT/xh018/cadence/v10_0/spectre/v10_0_2/lpmos/models/mos/nmmc.scs
Reading file:  /opt/pdk/xfab/XKIT/xh018/cadence/v10_0/spectre/v10_0_2/lpmos/models/mos/nmmc_mos2.scs
Reading file:  /opt/pdk/xfab/XKIT/xh018/cadence/v10_0/spectre/v10_0_2/lpmos/models/mos/nmmc_bjt.scs
Reading file:  /opt/pdk/xfab/XKIT/xh018/cadence/v10_0/spectre/v10_0_2/lpmos/models/mos/nmmd.scs
Reading file:  /opt/pdk/xfab/XKIT/xh018/cadence/v10_0/spectre/v10_0_2/lpmos/models/mos/nmmd_mos2.scs
Reading file:  /opt/pdk/xfab/XKIT/xh018/cadence/v10_0/spectre/v10_0_2/lpmos/models/mos/nmmd_bjt.scs
Reading file:  /opt/pdk/xfab/XKIT/xh018/cadence/v10_0/spectre/v10_0_2/lpmos/models/mos/nmc.scs
Reading file:  /opt/pdk/xfab/XKIT/xh018/cadence/v10_0/spectre/v10_0_2/lpmos/models/mos/nmc_mos2.scs
Reading file:  /opt/pdk/xfab/XKIT/xh018/cadence/v10_0/spectre/v10_0_2/lpmos/models/mos/nmc_bjt.scs
Reading file:  /opt/pdk/xfab/XKIT/xh018/cadence/v10_0/spectre/v10_0_2/lpmos/models/mos/nma.scs
Reading file:  /opt/pdk/xfab/XKIT/xh018/cadence/v10_0/spectre/v10_0_2/lpmos/models/mos/nma_bjt.scs
Reading file:  /opt/pdk/xfab/XKIT/xh018/cadence/v10_0/spectre/v10_0_2/lpmos/models/mos/phv.scs
Reading file:  /opt/pdk/xfab/XKIT/xh018/cadence/v10_0/spectre/v10_0_2/lpmos/models/mos/phv_mos2.scs
Reading file:  /opt/pdk/xfab/XKIT/xh018/cadence/v10_0/spectre/v10_0_2/lpmos/models/mos/phv_bjt.scs
Reading file:  /opt/pdk/xfab/XKIT/xh018/cadence/v10_0/spectre/v10_0_2/lpmos/models/mos/phhv.scs
Reading file:  /opt/pdk/xfab/XKIT/xh018/cadence/v10_0/spectre/v10_0_2/lpmos/models/mos/phhv_mos2.scs
Reading file:  /opt/pdk/xfab/XKIT/xh018/cadence/v10_0/spectre/v10_0_2/lpmos/models/mos/phhv_bjt.scs
Reading file:  /opt/pdk/xfab/XKIT/xh018/cadence/v10_0/spectre/v10_0_2/lpmos/models/mos/pmc.scs
Reading file:  /opt/pdk/xfab/XKIT/xh018/cadence/v10_0/spectre/v10_0_2/lpmos/models/mos/pmc_mos2.scs
Reading file:  /opt/pdk/xfab/XKIT/xh018/cadence/v10_0/spectre/v10_0_2/lpmos/models/mos/pmc_bjt.scs
Reading file:  /opt/pdk/xfab/XKIT/xh018/cadence/v10_0/spectre/v10_0_2/lpmos/models/mos/pmmc.scs
Reading file:  /opt/pdk/xfab/XKIT/xh018/cadence/v10_0/spectre/v10_0_2/lpmos/models/mos/pmmc_mos2.scs
Reading file:  /opt/pdk/xfab/XKIT/xh018/cadence/v10_0/spectre/v10_0_2/lpmos/models/mos/pmmc_bjt.scs
Reading file:  /opt/pdk/xfab/XKIT/xh018/cadence/v10_0/spectre/v10_0_2/lpmos/models/mos/pma.scs
Reading file:  /opt/pdk/xfab/XKIT/xh018/cadence/v10_0/spectre/v10_0_2/lpmos/models/mos/pma_bjt.scs
Reading file:  /opt/pdk/xfab/XKIT/xh018/cadence/v10_0/spectre/v10_0_2/lpmos/models/mos/pmb.scs
Reading file:  /opt/pdk/xfab/XKIT/xh018/cadence/v10_0/spectre/v10_0_2/lpmos/models/mos/nesvt.scs
Reading file:  /opt/pdk/xfab/XKIT/xh018/cadence/v10_0/spectre/v10_0_2/lpmos/models/mos/nesvti.scs
Reading file:  /opt/pdk/xfab/XKIT/xh018/cadence/v10_0/spectre/v10_0_2/lpmos/models/mos/nesvti_6.scs
Reading file:  /opt/pdk/xfab/XKIT/xh018/cadence/v10_0/spectre/v10_0_2/lpmos/models/mos/nesvti_m_6.scs
Reading file:  /opt/pdk/xfab/XKIT/xh018/cadence/v10_0/spectre/v10_0_2/lpmos/models/mos/pesvt.scs
Reading file:  /opt/pdk/xfab/XKIT/xh018/cadence/v10_0/spectre/v10_0_2/lpmos/models/mos/pesvt_5.scs
Reading file:  /opt/pdk/xfab/XKIT/xh018/cadence/v10_0/spectre/v10_0_2/lpmos/models/mos/pesvti.scs
Reading file:  /opt/pdk/xfab/XKIT/xh018/cadence/v10_0/spectre/v10_0_2/lpmos/models/mos/pesvti_5.scs
Reading file:  /opt/pdk/xfab/XKIT/xh018/cadence/v10_0/spectre/v10_0_2/lpmos/models/mos/pesvti_m_5.scs
Reading file:  /opt/pdk/xfab/XKIT/xh018/cadence/v10_0/spectre/v10_0_2/lpmos/models/mos/nhvd.scs
Reading file:  /opt/pdk/xfab/XKIT/xh018/cadence/v10_0/spectre/v10_0_2/lpmos/models/mos/nhvd_bjt.scs
Reading file:  /opt/pdk/xfab/XKIT/xh018/cadence/v10_0/spectre/v10_0_2/lpmos/models/mos/nhhvd.scs
Reading file:  /opt/pdk/xfab/XKIT/xh018/cadence/v10_0/spectre/v10_0_2/lpmos/models/mos/nhhvd_bjt.scs
Reading file:  /opt/pdk/xfab/XKIT/xh018/cadence/v10_0/spectre/v10_0_2/lpmos/photo.scs
Reading file:  /opt/pdk/xfab/XKIT/xh018/cadence/v10_0/spectre/v10_0_2/lpmos/models/photo/tm_pho.scs
Reading file:  /opt/pdk/xfab/XKIT/xh018/cadence/v10_0/spectre/v10_0_2/lpmos/models/photo/dphoa.scs
Reading file:  /opt/pdk/xfab/XKIT/xh018/cadence/v10_0/spectre/v10_0_2/lpmos/models/photo/dpho.va
Reading link:  /opt/tools/cadence/installs/SPECTRE241/tools.lnx86/spectre/etc/ahdl/discipline.h
Reading file:  /opt/tools/cadence/installs/SPECTRE241/tools.lnx86/spectre/etc/ahdl/disciplines.vams
Reading link:  /opt/tools/cadence/installs/SPECTRE241/tools.lnx86/spectre/etc/ahdl/constants.h
Reading file:  /opt/tools/cadence/installs/SPECTRE241/tools.lnx86/spectre/etc/ahdl/constants.vams
Reading file:  /opt/pdk/xfab/XKIT/xh018/cadence/v10_0/spectre/v10_0_2/lpmos/models/photo/dphob.scs
Reading file:  /opt/pdk/xfab/XKIT/xh018/cadence/v10_0/spectre/v10_0_2/lpmos/models/photo/dphoc.scs
Reading file:  /opt/pdk/xfab/XKIT/xh018/cadence/v10_0/spectre/v10_0_2/lpmos/models/photo/iphoto_uv.va
Reading file:  /opt/pdk/xfab/XKIT/xh018/cadence/v10_0/spectre/v10_0_2/lpmos/models/photo/dphoc_cat.scs
Reading file:  /opt/pdk/xfab/XKIT/xh018/cadence/v10_0/spectre/v10_0_2/lpmos/models/photo/dphoc0.scs
Reading file:  /opt/pdk/xfab/XKIT/xh018/cadence/v10_0/spectre/v10_0_2/lpmos/models/photo/dphoc0_cat.scs
Reading file:  /opt/pdk/xfab/XKIT/xh018/cadence/v10_0/spectre/v10_0_2/lpmos/models/photo/dphocfp.scs
Reading file:  /opt/pdk/xfab/XKIT/xh018/cadence/v10_0/spectre/v10_0_2/lpmos/models/photo/dphocfp_cat.scs
Reading file:  /opt/pdk/xfab/XKIT/xh018/cadence/v10_0/spectre/v10_0_2/lpmos/models/photo/dphod.scs
Reading file:  /opt/pdk/xfab/XKIT/xh018/cadence/v10_0/spectre/v10_0_2/lpmos/models/photo/dphod_an1.scs
Reading file:  /opt/pdk/xfab/XKIT/xh018/cadence/v10_0/spectre/v10_0_2/lpmos/models/photo/dphod_an2.scs
Reading file:  /opt/pdk/xfab/XKIT/xh018/cadence/v10_0/spectre/v10_0_2/lpmos/models/photo/dphod0.scs
Reading file:  /opt/pdk/xfab/XKIT/xh018/cadence/v10_0/spectre/v10_0_2/lpmos/models/photo/dphod0_an1.scs
Reading file:  /opt/pdk/xfab/XKIT/xh018/cadence/v10_0/spectre/v10_0_2/lpmos/models/photo/dphod0_an2.scs
Reading file:  /opt/pdk/xfab/XKIT/xh018/cadence/v10_0/spectre/v10_0_2/lpmos/models/photo/dphodfp.scs
Reading file:  /opt/pdk/xfab/XKIT/xh018/cadence/v10_0/spectre/v10_0_2/lpmos/models/photo/dphodfp_an1.scs
Reading file:  /opt/pdk/xfab/XKIT/xh018/cadence/v10_0/spectre/v10_0_2/lpmos/models/photo/dphodfp_an2.scs
Reading file:  /opt/pdk/xfab/XKIT/xh018/cadence/v10_0/spectre/v10_0_2/lpmos/models/photo/dspada0.scs
Reading file:  /opt/pdk/xfab/XKIT/xh018/cadence/v10_0/spectre/v10_0_2/lpmos/models/photo/ispad.va
Reading file:  /opt/pdk/xfab/XKIT/xh018/cadence/v10_0/spectre/v10_0_2/lpmos/models/photo/dapb.scs
Reading file:  /opt/pdk/xfab/XKIT/xh018/cadence/v10_0/spectre/v10_0_2/lpmos/models/photo/iphoto_apd_trig.va
Reading file:  /opt/pdk/xfab/XKIT/xh018/cadence/v10_0/spectre/v10_0_2/lpmos/models/photo/dapb_jun.scs
Reading file:  /opt/pdk/xfab/XKIT/xh018/cadence/v10_0/spectre/v10_0_2/lpmos/models/photo/dapb_trig.scs
Reading file:  /opt/pdk/xfab/XKIT/xh018/cadence/v10_0/spectre/v10_0_2/lpmos/models/photo/dapb0.scs
Reading file:  /opt/pdk/xfab/XKIT/xh018/cadence/v10_0/spectre/v10_0_2/lpmos/models/photo/dapb0_jun.scs
Reading file:  /opt/pdk/xfab/XKIT/xh018/cadence/v10_0/spectre/v10_0_2/lpmos/models/photo/dspb.scs
Reading file:  /opt/pdk/xfab/XKIT/xh018/cadence/v10_0/spectre/v10_0_2/lpmos/models/photo/ispad_trig.va
Reading file:  /opt/pdk/xfab/XKIT/xh018/cadence/v10_0/spectre/v10_0_2/lpmos/models/photo/dspb_jun.scs
Reading file:  /opt/pdk/xfab/XKIT/xh018/cadence/v10_0/spectre/v10_0_2/lpmos/models/photo/dspb_trig.scs
Reading file:  /opt/pdk/xfab/XKIT/xh018/cadence/v10_0/spectre/v10_0_2/lpmos/models/photo/dspb0.scs
Reading file:  /opt/pdk/xfab/XKIT/xh018/cadence/v10_0/spectre/v10_0_2/lpmos/models/photo/dspb0_jun.scs
Reading file:  /opt/pdk/xfab/XKIT/xh018/cadence/v10_0/spectre/v10_0_2/lpmos/models/photo/dspbfep.scs
Reading file:  /opt/pdk/xfab/XKIT/xh018/cadence/v10_0/spectre/v10_0_2/lpmos/models/photo/dapda.scs
Reading file:  /opt/pdk/xfab/XKIT/xh018/cadence/v10_0/spectre/v10_0_2/lpmos/models/photo/iphoto_apd.va
Reading file:  /opt/pdk/xfab/XKIT/xh018/cadence/v10_0/spectre/v10_0_2/lpmos/models/photo/dapda_cat.scs
Reading file:  /opt/pdk/xfab/XKIT/xh018/cadence/v10_0/spectre/v10_0_2/lpmos/models/photo/dapda0.scs
Reading file:  /opt/pdk/xfab/XKIT/xh018/cadence/v10_0/spectre/v10_0_2/lpmos/models/photo/dspada.scs
Reading file:  /opt/pdk/xfab/XKIT/xh018/cadence/v10_0/spectre/v10_0_2/lpmos/models/photo/dspada_cat.scs
Reading file:  /opt/pdk/xfab/XKIT/xh018/cadence/v10_0/spectre/v10_0_2/lpmos/res.scs
Reading file:  /opt/pdk/xfab/XKIT/xh018/cadence/v10_0/spectre/v10_0_2/lpmos/models/res/tm_res.scs
Reading file:  /opt/pdk/xfab/XKIT/xh018/cadence/v10_0/spectre/v10_0_2/lpmos/models/res/rdn.scs
Reading file:  /opt/pdk/xfab/XKIT/xh018/cadence/v10_0/spectre/v10_0_2/lpmos/models/res/rdn_esd.scs
Reading file:  /opt/pdk/xfab/XKIT/xh018/cadence/v10_0/spectre/v10_0_2/lpmos/models/res/rdp.scs
Reading file:  /opt/pdk/xfab/XKIT/xh018/cadence/v10_0/spectre/v10_0_2/lpmos/models/res/rdp_io.scs
Reading file:  /opt/pdk/xfab/XKIT/xh018/cadence/v10_0/spectre/v10_0_2/lpmos/models/res/rdp_esd.scs
Reading file:  /opt/pdk/xfab/XKIT/xh018/cadence/v10_0/spectre/v10_0_2/lpmos/models/res/rnw.scs
Reading file:  /opt/pdk/xfab/XKIT/xh018/cadence/v10_0/spectre/v10_0_2/lpmos/models/res/rnw_scr.scs
Reading file:  /opt/pdk/xfab/XKIT/xh018/cadence/v10_0/spectre/v10_0_2/lpmos/models/res/rdn3.scs
Reading file:  /opt/pdk/xfab/XKIT/xh018/cadence/v10_0/spectre/v10_0_2/lpmos/models/res/rdp3.scs
Reading file:  /opt/pdk/xfab/XKIT/xh018/cadence/v10_0/spectre/v10_0_2/lpmos/models/res/rnw3.scs
Reading file:  /opt/pdk/xfab/XKIT/xh018/cadence/v10_0/spectre/v10_0_2/lpmos/models/res/rnw3_scr.scs
Reading file:  /opt/pdk/xfab/XKIT/xh018/cadence/v10_0/spectre/v10_0_2/lpmos/models/res/rdnwmv.scs
Reading file:  /opt/pdk/xfab/XKIT/xh018/cadence/v10_0/spectre/v10_0_2/lpmos/models/res/rnp1.scs
Reading file:  /opt/pdk/xfab/XKIT/xh018/cadence/v10_0/spectre/v10_0_2/lpmos/models/res/rnp1_3.scs
Reading file:  /opt/pdk/xfab/XKIT/xh018/cadence/v10_0/spectre/v10_0_2/lpmos/models/res/rpp1.scs
Reading file:  /opt/pdk/xfab/XKIT/xh018/cadence/v10_0/spectre/v10_0_2/lpmos/models/res/rpp1_3.scs
Reading file:  /opt/pdk/xfab/XKIT/xh018/cadence/v10_0/spectre/v10_0_2/lpmos/models/res/rpp1s.scs
Reading file:  /opt/pdk/xfab/XKIT/xh018/cadence/v10_0/spectre/v10_0_2/lpmos/models/res/rpp1s_3.scs
Reading file:  /opt/pdk/xfab/XKIT/xh018/cadence/v10_0/spectre/v10_0_2/lpmos/models/res/rnp1h.scs
Reading file:  /opt/pdk/xfab/XKIT/xh018/cadence/v10_0/spectre/v10_0_2/lpmos/models/res/rnp1h_3.scs
Reading file:  /opt/pdk/xfab/XKIT/xh018/cadence/v10_0/spectre/v10_0_2/lpmos/models/res/rpp1k1.scs
Reading file:  /opt/pdk/xfab/XKIT/xh018/cadence/v10_0/spectre/v10_0_2/lpmos/models/res/rpp1k1_3.scs
Reading file:  /opt/pdk/xfab/XKIT/xh018/cadence/v10_0/spectre/v10_0_2/lpmos/models/res/rctdn.scs
Reading file:  /opt/pdk/xfab/XKIT/xh018/cadence/v10_0/spectre/v10_0_2/lpmos/models/res/rctdp.scs
Reading file:  /opt/pdk/xfab/XKIT/xh018/cadence/v10_0/spectre/v10_0_2/lpmos/models/res/rctp1.scs
Reading file:  /opt/pdk/xfab/XKIT/xh018/cadence/v10_0/spectre/v10_0_2/lpmos/models/res/rsildn.scs
Reading file:  /opt/pdk/xfab/XKIT/xh018/cadence/v10_0/spectre/v10_0_2/lpmos/models/res/rsildp.scs
Reading file:  /opt/pdk/xfab/XKIT/xh018/cadence/v10_0/spectre/v10_0_2/lpmos/models/res/rsilnp1.scs
Reading file:  /opt/pdk/xfab/XKIT/xh018/cadence/v10_0/spectre/v10_0_2/lpmos/models/res/rsilpp1.scs
Reading file:  /opt/pdk/xfab/XKIT/xh018/cadence/v10_0/spectre/v10_0_2/lpmos/models/res/rsbdn.scs
Reading file:  /opt/pdk/xfab/XKIT/xh018/cadence/v10_0/spectre/v10_0_2/lpmos/models/res/rsbdp.scs
Reading file:  /opt/pdk/xfab/XKIT/xh018/cadence/v10_0/spectre/v10_0_2/lpmos/models/res/rsbdn3.scs
Reading file:  /opt/pdk/xfab/XKIT/xh018/cadence/v10_0/spectre/v10_0_2/lpmos/models/res/rsbdp3.scs
Reading file:  /opt/pdk/xfab/XKIT/xh018/cadence/v10_0/spectre/v10_0_2/lpmos/models/res/rsbnp1.scs
Reading file:  /opt/pdk/xfab/XKIT/xh018/cadence/v10_0/spectre/v10_0_2/lpmos/models/res/rsbpp1.scs
Reading file:  /opt/pdk/xfab/XKIT/xh018/cadence/v10_0/spectre/v10_0_2/lpmos/models/res/rsbpp1k1.scs
Reading file:  /opt/pdk/xfab/XKIT/xh018/cadence/v10_0/spectre/v10_0_2/lpmos/models/res/rm1.scs
Reading file:  /opt/pdk/xfab/XKIT/xh018/cadence/v10_0/spectre/v10_0_2/lpmos/models/res/rm2.scs
Reading file:  /opt/pdk/xfab/XKIT/xh018/cadence/v10_0/spectre/v10_0_2/lpmos/models/res/rm3.scs
Reading file:  /opt/pdk/xfab/XKIT/xh018/cadence/v10_0/spectre/v10_0_2/lpmos/models/res/rm4.scs
Reading file:  /opt/pdk/xfab/XKIT/xh018/cadence/v10_0/spectre/v10_0_2/lpmos/models/res/rm5.scs
Reading file:  /opt/pdk/xfab/XKIT/xh018/cadence/v10_0/spectre/v10_0_2/lpmos/models/res/rmtp.scs
Reading file:  /opt/pdk/xfab/XKIT/xh018/cadence/v10_0/spectre/v10_0_2/lpmos/models/res/rmtpl.scs
Reading file:  /opt/pdk/xfab/XKIT/xh018/cadence/v10_0/spectre/v10_0_2/lpmos/models/res/pfuse.scs
Reading file:  /opt/pdk/xfab/XKIT/xh018/cadence/v10_0/spectre/v10_0_2/lpmos/models/res/s_res.scs
Time for NDB Parsing: CPU = 274.003 ms, elapsed = 891.189 ms.
Time accumulated: CPU = 422.161 ms, elapsed = 891.191 ms.
Peak resident memory used = 204 Mbytes.

Time for Elaboration: CPU = 12.725 ms, elapsed = 14.184 ms.
Time accumulated: CPU = 434.966 ms, elapsed = 905.512 ms.
Peak resident memory used = 214 Mbytes.


Notice from spectre during hierarchy flattening.
    The value 'psf' specified for the 'checklimitdest' option will no longer be supported in future releases. Use 'spectre -h' to see other recommended values for the 'checklimitdest' option.


Time for EDB Visiting: CPU = 747 us, elapsed = 1.00517 ms.
Time accumulated: CPU = 435.804 ms, elapsed = 906.659 ms.
Peak resident memory used = 216 Mbytes.


Notice from spectre during initial setup.
    Multithreading is disabled due to the size of the design being too small.


Netlist title:
        // Generated for: spectre


Global user options:
         psfversion = 1.4.0
            vabstol = 1e-06
            iabstol = 1e-12
               temp = 27
               gmin = 1e-12
             rforce = 1
           maxnotes = 5
           maxwarns = 5
             digits = 5
               cols = 80
             pivrel = 0.001
           sensfile = ../psf/sens.output
     checklimitdest = psf
               save = allpub
             reltol = 0.001
               tnom = 27
             scalem = 1
              scale = 1

Scoped user options:

Circuit inventory:
              nodes 9
            bsim3v3 3     
          capacitor 1     
            isource 2     
           resistor 3     
            vsource 5     

Analysis and control statement inventory:
                 dc 2     
               info 8     
               tran 1     

Output statements:
             .probe 0     
           .measure 0     
               save 0     


Notice from spectre during initial setup.
    APS enabled.

Time for parsing: CPU = 1.821 ms, elapsed = 7.64394 ms.
Time accumulated: CPU = 437.681 ms, elapsed = 914.397 ms.
Peak resident memory used = 219 Mbytes.

~~~~~~~~~~~~~~~~~~~~~~
Pre-Simulation Summary
~~~~~~~~~~~~~~~~~~~~~~
   -   (APS) Multi-threading. The recommended number of threads is 1, consider adding +mt=1 on command line.
~~~~~~~~~~~~~~~~~~~~~~

******************
DC Analysis `dcOp'
******************

Opening the PSF file ../psf/dcOp.dc ...
Important parameter values:
    reltol = 1e-03
    abstol(V) = 1 uV
    abstol(I) = 1 pA
    temp = 27 C
    tnom = 27 C
    tempeffects = all
    gmindc = 1 pS
    rabsshort = 1 mOhm

Maximum value achieved for any signal of each quantity: 
V: V(net3) = 1.8 V
I: I(V1:p) = 172.6 uA
Convergence achieved in 6 iterations.
DC simulation time: CPU = 1.691 ms, elapsed = 6.74105 ms.
Total time required for dc analysis `dcOp': CPU = 1.759 ms, elapsed = 6.86216 ms, util. = 25.6%.
Time accumulated: CPU = 446.576 ms, elapsed = 932.92 ms.
Peak resident memory used = 222 Mbytes.

dcOpInfo: writing operating point information to rawfile.

Opening the PSF file ../psf/dcOpInfo.info ...

**********************************************
DC Analysis `dc': VIN2 = (-900e-03 -> 900e-03)
**********************************************

Opening the PSF file ../psf/dc.dc ...
Important parameter values:
    reltol = 1e-03
    abstol(V) = 1 uV
    abstol(I) = 1 pA
    temp = 27 C
    tnom = 27 C
    tempeffects = all
    gmindc = 1 pS
    rabsshort = 1 mOhm
    dc: VIN2 = -855e-03     (2.5 %), step = 1e-03       (55.6 m%)
    dc: VIN2 = -854e-03    (2.56 %), step = 1e-03       (55.6 m%)
    dc: VIN2 = -853e-03    (2.61 %), step = 1e-03       (55.6 m%)
    dc: VIN2 = -852e-03    (2.67 %), step = 1e-03       (55.6 m%)
    dc: VIN2 = -851e-03    (2.72 %), step = 1e-03       (55.6 m%)
    dc: VIN2 = -850e-03    (2.78 %), step = 1e-03       (55.6 m%)
    dc: VIN2 = -849e-03    (2.83 %), step = 1e-03       (55.6 m%)
    dc: VIN2 = -848e-03    (2.89 %), step = 1e-03       (55.6 m%)
    dc: VIN2 = -847e-03    (2.94 %), step = 1e-03       (55.6 m%)
    dc: VIN2 = -846e-03       (3 %), step = 1e-03       (55.6 m%)
    dc: VIN2 = -845e-03    (3.06 %), step = 1e-03       (55.6 m%)
    dc: VIN2 = -844e-03    (3.11 %), step = 1e-03       (55.6 m%)
    dc: VIN2 = -843e-03    (3.17 %), step = 1e-03       (55.6 m%)
    dc: VIN2 = -842e-03    (3.22 %), step = 1e-03       (55.6 m%)
    dc: VIN2 = -841e-03    (3.28 %), step = 1e-03       (55.6 m%)
    dc: VIN2 = -840e-03    (3.33 %), step = 1e-03       (55.6 m%)
    dc: VIN2 = -839e-03    (3.39 %), step = 1e-03       (55.6 m%)
    dc: VIN2 = -838e-03    (3.44 %), step = 1e-03       (55.6 m%)
    dc: VIN2 = -837e-03     (3.5 %), step = 1e-03       (55.6 m%)
    dc: VIN2 = -836e-03    (3.56 %), step = 1e-03       (55.6 m%)
    dc: VIN2 = -835e-03    (3.61 %), step = 1e-03       (55.6 m%)
    dc: VIN2 = -834e-03    (3.67 %), step = 1e-03       (55.6 m%)
    dc: VIN2 = -833e-03    (3.72 %), step = 1e-03       (55.6 m%)
    dc: VIN2 = -832e-03    (3.78 %), step = 1e-03       (55.6 m%)
    dc: VIN2 = -831e-03    (3.83 %), step = 1e-03       (55.6 m%)
    dc: VIN2 = -830e-03    (3.89 %), step = 1e-03       (55.6 m%)
    dc: VIN2 = -829e-03    (3.94 %), step = 1e-03       (55.6 m%)
    dc: VIN2 = -828e-03       (4 %), step = 1e-03       (55.6 m%)
    dc: VIN2 = -827e-03    (4.06 %), step = 1e-03       (55.6 m%)
    dc: VIN2 = -826e-03    (4.11 %), step = 1e-03       (55.6 m%)
    dc: VIN2 = -825e-03    (4.17 %), step = 1e-03       (55.6 m%)
    dc: VIN2 = -824e-03    (4.22 %), step = 1e-03       (55.6 m%)
    dc: VIN2 = -823e-03    (4.28 %), step = 1e-03       (55.6 m%)
    dc: VIN2 = -822e-03    (4.33 %), step = 1e-03       (55.6 m%)
    dc: VIN2 = -821e-03    (4.39 %), step = 1e-03       (55.6 m%)
    dc: VIN2 = -820e-03    (4.44 %), step = 1e-03       (55.6 m%)
    dc: VIN2 = -819e-03     (4.5 %), step = 1e-03       (55.6 m%)
    dc: VIN2 = -818e-03    (4.56 %), step = 1e-03       (55.6 m%)
    dc: VIN2 = -817e-03    (4.61 %), step = 1e-03       (55.6 m%)
    dc: VIN2 = -816e-03    (4.67 %), step = 1e-03       (55.6 m%)
    dc: VIN2 = -815e-03    (4.72 %), step = 1e-03       (55.6 m%)
    dc: VIN2 = -814e-03    (4.78 %), step = 1e-03       (55.6 m%)
    dc: VIN2 = -813e-03    (4.83 %), step = 1e-03       (55.6 m%)
    dc: VIN2 = -812e-03    (4.89 %), step = 1e-03       (55.6 m%)
    dc: VIN2 = -811e-03    (4.94 %), step = 1e-03       (55.6 m%)
    dc: VIN2 = -810e-03       (5 %), step = 1e-03       (55.6 m%)
    dc: VIN2 = -809e-03    (5.06 %), step = 1e-03       (55.6 m%)
    dc: VIN2 = -808e-03    (5.11 %), step = 1e-03       (55.6 m%)
    dc: VIN2 = -807e-03    (5.17 %), step = 1e-03       (55.6 m%)
    dc: VIN2 = -806e-03    (5.22 %), step = 1e-03       (55.6 m%)
    dc: VIN2 = -805e-03    (5.28 %), step = 1e-03       (55.6 m%)
    dc: VIN2 = -804e-03    (5.33 %), step = 1e-03       (55.6 m%)
    dc: VIN2 = -803e-03    (5.39 %), step = 1e-03       (55.6 m%)
    dc: VIN2 = -802e-03    (5.44 %), step = 1e-03       (55.6 m%)
    dc: VIN2 = -801e-03     (5.5 %), step = 1e-03       (55.6 m%)
    dc: VIN2 = -800e-03    (5.56 %), step = 1e-03       (55.6 m%)
    dc: VIN2 = -799e-03    (5.61 %), step = 1e-03       (55.6 m%)
    dc: VIN2 = -798e-03    (5.67 %), step = 1e-03       (55.6 m%)
    dc: VIN2 = -797e-03    (5.72 %), step = 1e-03       (55.6 m%)
    dc: VIN2 = -796e-03    (5.78 %), step = 1e-03       (55.6 m%)
    dc: VIN2 = -795e-03    (5.83 %), step = 1e-03       (55.6 m%)
    dc: VIN2 = -794e-03    (5.89 %), step = 1e-03       (55.6 m%)
    dc: VIN2 = -793e-03    (5.94 %), step = 1e-03       (55.6 m%)
    dc: VIN2 = -792e-03       (6 %), step = 1e-03       (55.6 m%)
    dc: VIN2 = -791e-03    (6.06 %), step = 1e-03       (55.6 m%)
    dc: VIN2 = -790e-03    (6.11 %), step = 1e-03       (55.6 m%)
    dc: VIN2 = -789e-03    (6.17 %), step = 1e-03       (55.6 m%)
    dc: VIN2 = -788e-03    (6.22 %), step = 1e-03       (55.6 m%)
    dc: VIN2 = -787e-03    (6.28 %), step = 1e-03       (55.6 m%)
    dc: VIN2 = -786e-03    (6.33 %), step = 1e-03       (55.6 m%)
    dc: VIN2 = -785e-03    (6.39 %), step = 1e-03       (55.6 m%)
    dc: VIN2 = -784e-03    (6.44 %), step = 1e-03       (55.6 m%)
    dc: VIN2 = -783e-03     (6.5 %), step = 1e-03       (55.6 m%)
    dc: VIN2 = -782e-03    (6.56 %), step = 1e-03       (55.6 m%)
    dc: VIN2 = -781e-03    (6.61 %), step = 1e-03       (55.6 m%)
    dc: VIN2 = -780e-03    (6.67 %), step = 1e-03       (55.6 m%)
    dc: VIN2 = -779e-03    (6.72 %), step = 1e-03       (55.6 m%)
    dc: VIN2 = -778e-03    (6.78 %), step = 1e-03       (55.6 m%)
    dc: VIN2 = -777e-03    (6.83 %), step = 1e-03       (55.6 m%)
    dc: VIN2 = -776e-03    (6.89 %), step = 1e-03       (55.6 m%)
    dc: VIN2 = -775e-03    (6.94 %), step = 1e-03       (55.6 m%)
    dc: VIN2 = -774e-03       (7 %), step = 1e-03       (55.6 m%)
    dc: VIN2 = -773e-03    (7.06 %), step = 1e-03       (55.6 m%)
    dc: VIN2 = -772e-03    (7.11 %), step = 1e-03       (55.6 m%)
    dc: VIN2 = -771e-03    (7.17 %), step = 1e-03       (55.6 m%)
    dc: VIN2 = -770e-03    (7.22 %), step = 1e-03       (55.6 m%)
    dc: VIN2 = -769e-03    (7.28 %), step = 1e-03       (55.6 m%)
    dc: VIN2 = -768e-03    (7.33 %), step = 1e-03       (55.6 m%)
    dc: VIN2 = -767e-03    (7.39 %), step = 1e-03       (55.6 m%)
    dc: VIN2 = -766e-03    (7.44 %), step = 1e-03       (55.6 m%)
    dc: VIN2 = -765e-03     (7.5 %), step = 1e-03       (55.6 m%)
    dc: VIN2 = -764e-03    (7.56 %), step = 1e-03       (55.6 m%)
    dc: VIN2 = -763e-03    (7.61 %), step = 1e-03       (55.6 m%)
    dc: VIN2 = -762e-03    (7.67 %), step = 1e-03       (55.6 m%)
    dc: VIN2 = -761e-03    (7.72 %), step = 1e-03       (55.6 m%)
    dc: VIN2 = -760e-03    (7.78 %), step = 1e-03       (55.6 m%)
    dc: VIN2 = -759e-03    (7.83 %), step = 1e-03       (55.6 m%)
    dc: VIN2 = -758e-03    (7.89 %), step = 1e-03       (55.6 m%)
    dc: VIN2 = -757e-03    (7.94 %), step = 1e-03       (55.6 m%)
    dc: VIN2 = -756e-03       (8 %), step = 1e-03       (55.6 m%)
    dc: VIN2 = -755e-03    (8.06 %), step = 1e-03       (55.6 m%)
    dc: VIN2 = -754e-03    (8.11 %), step = 1e-03       (55.6 m%)
    dc: VIN2 = -753e-03    (8.17 %), step = 1e-03       (55.6 m%)
    dc: VIN2 = -752e-03    (8.22 %), step = 1e-03       (55.6 m%)
    dc: VIN2 = -751e-03    (8.28 %), step = 1e-03       (55.6 m%)
    dc: VIN2 = -750e-03    (8.33 %), step = 1e-03       (55.6 m%)
    dc: VIN2 = -749e-03    (8.39 %), step = 1e-03       (55.6 m%)
    dc: VIN2 = -748e-03    (8.44 %), step = 1e-03       (55.6 m%)
    dc: VIN2 = -747e-03     (8.5 %), step = 1e-03       (55.6 m%)
    dc: VIN2 = -746e-03    (8.56 %), step = 1e-03       (55.6 m%)
    dc: VIN2 = -745e-03    (8.61 %), step = 1e-03       (55.6 m%)
    dc: VIN2 = -744e-03    (8.67 %), step = 1e-03       (55.6 m%)
    dc: VIN2 = -743e-03    (8.72 %), step = 1e-03       (55.6 m%)
    dc: VIN2 = -742e-03    (8.78 %), step = 1e-03       (55.6 m%)
    dc: VIN2 = -741e-03    (8.83 %), step = 1e-03       (55.6 m%)
    dc: VIN2 = -740e-03    (8.89 %), step = 1e-03       (55.6 m%)
    dc: VIN2 = -739e-03    (8.94 %), step = 1e-03       (55.6 m%)
    dc: VIN2 = -738e-03       (9 %), step = 1e-03       (55.6 m%)
    dc: VIN2 = -737e-03    (9.06 %), step = 1e-03       (55.6 m%)
    dc: VIN2 = -736e-03    (9.11 %), step = 1e-03       (55.6 m%)
    dc: VIN2 = -735e-03    (9.17 %), step = 1e-03       (55.6 m%)
    dc: VIN2 = -734e-03    (9.22 %), step = 1e-03       (55.6 m%)
    dc: VIN2 = -733e-03    (9.28 %), step = 1e-03       (55.6 m%)
    dc: VIN2 = -732e-03    (9.33 %), step = 1e-03       (55.6 m%)
    dc: VIN2 = -731e-03    (9.39 %), step = 1e-03       (55.6 m%)
    dc: VIN2 = -730e-03    (9.44 %), step = 1e-03       (55.6 m%)
    dc: VIN2 = -729e-03     (9.5 %), step = 1e-03       (55.6 m%)
    dc: VIN2 = -728e-03    (9.56 %), step = 1e-03       (55.6 m%)
    dc: VIN2 = -727e-03    (9.61 %), step = 1e-03       (55.6 m%)
    dc: VIN2 = -726e-03    (9.67 %), step = 1e-03       (55.6 m%)
    dc: VIN2 = -725e-03    (9.72 %), step = 1e-03       (55.6 m%)
    dc: VIN2 = -724e-03    (9.78 %), step = 1e-03       (55.6 m%)
    dc: VIN2 = -723e-03    (9.83 %), step = 1e-03       (55.6 m%)
    dc: VIN2 = -722e-03    (9.89 %), step = 1e-03       (55.6 m%)
    dc: VIN2 = -721e-03    (9.94 %), step = 1e-03       (55.6 m%)
    dc: VIN2 = -720e-03      (10 %), step = 1e-03       (55.6 m%)
    dc: VIN2 = -719e-03    (10.1 %), step = 1e-03       (55.6 m%)
    dc: VIN2 = -718e-03    (10.1 %), step = 1e-03       (55.6 m%)
    dc: VIN2 = -717e-03    (10.2 %), step = 1e-03       (55.6 m%)
    dc: VIN2 = -716e-03    (10.2 %), step = 1e-03       (55.6 m%)
    dc: VIN2 = -715e-03    (10.3 %), step = 1e-03       (55.6 m%)
    dc: VIN2 = -714e-03    (10.3 %), step = 1e-03       (55.6 m%)
    dc: VIN2 = -713e-03    (10.4 %), step = 1e-03       (55.6 m%)
    dc: VIN2 = -712e-03    (10.4 %), step = 1e-03       (55.6 m%)
    dc: VIN2 = -711e-03    (10.5 %), step = 1e-03       (55.6 m%)
    dc: VIN2 = -710e-03    (10.6 %), step = 1e-03       (55.6 m%)
    dc: VIN2 = -709e-03    (10.6 %), step = 1e-03       (55.6 m%)
    dc: VIN2 = -708e-03    (10.7 %), step = 1e-03       (55.6 m%)
    dc: VIN2 = -707e-03    (10.7 %), step = 1e-03       (55.6 m%)
    dc: VIN2 = -706e-03    (10.8 %), step = 1e-03       (55.6 m%)
    dc: VIN2 = -705e-03    (10.8 %), step = 1e-03       (55.6 m%)
    dc: VIN2 = -704e-03    (10.9 %), step = 1e-03       (55.6 m%)
    dc: VIN2 = -703e-03    (10.9 %), step = 1e-03       (55.6 m%)
    dc: VIN2 = -702e-03      (11 %), step = 1e-03       (55.6 m%)
    dc: VIN2 = -701e-03    (11.1 %), step = 1e-03       (55.6 m%)
    dc: VIN2 = -700e-03    (11.1 %), step = 1e-03       (55.6 m%)
    dc: VIN2 = -699e-03    (11.2 %), step = 1e-03       (55.6 m%)
    dc: VIN2 = -698e-03    (11.2 %), step = 1e-03       (55.6 m%)
    dc: VIN2 = -697e-03    (11.3 %), step = 1e-03       (55.6 m%)
    dc: VIN2 = -696e-03    (11.3 %), step = 1e-03       (55.6 m%)
    dc: VIN2 = -695e-03    (11.4 %), step = 1e-03       (55.6 m%)
    dc: VIN2 = -694e-03    (11.4 %), step = 1e-03       (55.6 m%)
    dc: VIN2 = -693e-03    (11.5 %), step = 1e-03       (55.6 m%)
    dc: VIN2 = -692e-03    (11.6 %), step = 1e-03       (55.6 m%)
    dc: VIN2 = -691e-03    (11.6 %), step = 1e-03       (55.6 m%)
    dc: VIN2 = -690e-03    (11.7 %), step = 1e-03       (55.6 m%)
    dc: VIN2 = -689e-03    (11.7 %), step = 1e-03       (55.6 m%)
    dc: VIN2 = -688e-03    (11.8 %), step = 1e-03       (55.6 m%)
    dc: VIN2 = -687e-03    (11.8 %), step = 1e-03       (55.6 m%)
    dc: VIN2 = -686e-03    (11.9 %), step = 1e-03       (55.6 m%)
    dc: VIN2 = -685e-03    (11.9 %), step = 1e-03       (55.6 m%)
    dc: VIN2 = -684e-03      (12 %), step = 1e-03       (55.6 m%)
    dc: VIN2 = -683e-03    (12.1 %), step = 1e-03       (55.6 m%)
    dc: VIN2 = -682e-03    (12.1 %), step = 1e-03       (55.6 m%)
    dc: VIN2 = -681e-03    (12.2 %), step = 1e-03       (55.6 m%)
    dc: VIN2 = -680e-03    (12.2 %), step = 1e-03       (55.6 m%)
    dc: VIN2 = -679e-03    (12.3 %), step = 1e-03       (55.6 m%)
    dc: VIN2 = -678e-03    (12.3 %), step = 1e-03       (55.6 m%)
    dc: VIN2 = -677e-03    (12.4 %), step = 1e-03       (55.6 m%)
    dc: VIN2 = -676e-03    (12.4 %), step = 1e-03       (55.6 m%)
    dc: VIN2 = -675e-03    (12.5 %), step = 1e-03       (55.6 m%)
    dc: VIN2 = -674e-03    (12.6 %), step = 1e-03       (55.6 m%)
    dc: VIN2 = -673e-03    (12.6 %), step = 1e-03       (55.6 m%)
    dc: VIN2 = -672e-03    (12.7 %), step = 1e-03       (55.6 m%)
    dc: VIN2 = -671e-03    (12.7 %), step = 1e-03       (55.6 m%)
    dc: VIN2 = -670e-03    (12.8 %), step = 1e-03       (55.6 m%)
    dc: VIN2 = -669e-03    (12.8 %), step = 1e-03       (55.6 m%)
    dc: VIN2 = -668e-03    (12.9 %), step = 1e-03       (55.6 m%)
    dc: VIN2 = -667e-03    (12.9 %), step = 1e-03       (55.6 m%)
    dc: VIN2 = -666e-03      (13 %), step = 1e-03       (55.6 m%)
    dc: VIN2 = -665e-03    (13.1 %), step = 1e-03       (55.6 m%)
    dc: VIN2 = -664e-03    (13.1 %), step = 1e-03       (55.6 m%)
    dc: VIN2 = -663e-03    (13.2 %), step = 1e-03       (55.6 m%)
    dc: VIN2 = -662e-03    (13.2 %), step = 1e-03       (55.6 m%)
    dc: VIN2 = -661e-03    (13.3 %), step = 1e-03       (55.6 m%)
    dc: VIN2 = -660e-03    (13.3 %), step = 1e-03       (55.6 m%)
    dc: VIN2 = -659e-03    (13.4 %), step = 1e-03       (55.6 m%)
    dc: VIN2 = -658e-03    (13.4 %), step = 1e-03       (55.6 m%)
    dc: VIN2 = -657e-03    (13.5 %), step = 1e-03       (55.6 m%)
    dc: VIN2 = -656e-03    (13.6 %), step = 1e-03       (55.6 m%)
    dc: VIN2 = -655e-03    (13.6 %), step = 1e-03       (55.6 m%)
    dc: VIN2 = -654e-03    (13.7 %), step = 1e-03       (55.6 m%)
    dc: VIN2 = -653e-03    (13.7 %), step = 1e-03       (55.6 m%)
    dc: VIN2 = -652e-03    (13.8 %), step = 1e-03       (55.6 m%)
    dc: VIN2 = -651e-03    (13.8 %), step = 1e-03       (55.6 m%)
    dc: VIN2 = -650e-03    (13.9 %), step = 1e-03       (55.6 m%)
    dc: VIN2 = -649e-03    (13.9 %), step = 1e-03       (55.6 m%)
    dc: VIN2 = -648e-03      (14 %), step = 1e-03       (55.6 m%)
    dc: VIN2 = -647e-03    (14.1 %), step = 1e-03       (55.6 m%)
    dc: VIN2 = -646e-03    (14.1 %), step = 1e-03       (55.6 m%)
    dc: VIN2 = -645e-03    (14.2 %), step = 1e-03       (55.6 m%)
    dc: VIN2 = -644e-03    (14.2 %), step = 1e-03       (55.6 m%)
    dc: VIN2 = -643e-03    (14.3 %), step = 1e-03       (55.6 m%)
    dc: VIN2 = -642e-03    (14.3 %), step = 1e-03       (55.6 m%)
    dc: VIN2 = -641e-03    (14.4 %), step = 1e-03       (55.6 m%)
    dc: VIN2 = -640e-03    (14.4 %), step = 1e-03       (55.6 m%)
    dc: VIN2 = -639e-03    (14.5 %), step = 1e-03       (55.6 m%)
    dc: VIN2 = -638e-03    (14.6 %), step = 1e-03       (55.6 m%)
    dc: VIN2 = -637e-03    (14.6 %), step = 1e-03       (55.6 m%)
    dc: VIN2 = -636e-03    (14.7 %), step = 1e-03       (55.6 m%)
    dc: VIN2 = -635e-03    (14.7 %), step = 1e-03       (55.6 m%)
    dc: VIN2 = -634e-03    (14.8 %), step = 1e-03       (55.6 m%)
    dc: VIN2 = -633e-03    (14.8 %), step = 1e-03       (55.6 m%)
    dc: VIN2 = -632e-03    (14.9 %), step = 1e-03       (55.6 m%)
    dc: VIN2 = -631e-03    (14.9 %), step = 1e-03       (55.6 m%)
    dc: VIN2 = -630e-03      (15 %), step = 1e-03       (55.6 m%)
    dc: VIN2 = -629e-03    (15.1 %), step = 1e-03       (55.6 m%)
    dc: VIN2 = -628e-03    (15.1 %), step = 1e-03       (55.6 m%)
    dc: VIN2 = -627e-03    (15.2 %), step = 1e-03       (55.6 m%)
    dc: VIN2 = -626e-03    (15.2 %), step = 1e-03       (55.6 m%)
    dc: VIN2 = -625e-03    (15.3 %), step = 1e-03       (55.6 m%)
    dc: VIN2 = -624e-03    (15.3 %), step = 1e-03       (55.6 m%)
    dc: VIN2 = -623e-03    (15.4 %), step = 1e-03       (55.6 m%)
    dc: VIN2 = -622e-03    (15.4 %), step = 1e-03       (55.6 m%)
    dc: VIN2 = -621e-03    (15.5 %), step = 1e-03       (55.6 m%)
    dc: VIN2 = -620e-03    (15.6 %), step = 1e-03       (55.6 m%)
    dc: VIN2 = -619e-03    (15.6 %), step = 1e-03       (55.6 m%)
    dc: VIN2 = -618e-03    (15.7 %), step = 1e-03       (55.6 m%)
    dc: VIN2 = -617e-03    (15.7 %), step = 1e-03       (55.6 m%)
    dc: VIN2 = -616e-03    (15.8 %), step = 1e-03       (55.6 m%)
    dc: VIN2 = -615e-03    (15.8 %), step = 1e-03       (55.6 m%)
    dc: VIN2 = -614e-03    (15.9 %), step = 1e-03       (55.6 m%)
    dc: VIN2 = -613e-03    (15.9 %), step = 1e-03       (55.6 m%)
    dc: VIN2 = -612e-03      (16 %), step = 1e-03       (55.6 m%)
    dc: VIN2 = -611e-03    (16.1 %), step = 1e-03       (55.6 m%)
    dc: VIN2 = -610e-03    (16.1 %), step = 1e-03       (55.6 m%)
    dc: VIN2 = -609e-03    (16.2 %), step = 1e-03       (55.6 m%)
    dc: VIN2 = -608e-03    (16.2 %), step = 1e-03       (55.6 m%)
    dc: VIN2 = -607e-03    (16.3 %), step = 1e-03       (55.6 m%)
    dc: VIN2 = -606e-03    (16.3 %), step = 1e-03       (55.6 m%)
    dc: VIN2 = -605e-03    (16.4 %), step = 1e-03       (55.6 m%)
    dc: VIN2 = -604e-03    (16.4 %), step = 1e-03       (55.6 m%)
    dc: VIN2 = -603e-03    (16.5 %), step = 1e-03       (55.6 m%)
    dc: VIN2 = -602e-03    (16.6 %), step = 1e-03       (55.6 m%)
    dc: VIN2 = -601e-03    (16.6 %), step = 1e-03       (55.6 m%)
    dc: VIN2 = -600e-03    (16.7 %), step = 1e-03       (55.6 m%)
    dc: VIN2 = -599e-03    (16.7 %), step = 1e-03       (55.6 m%)
    dc: VIN2 = -598e-03    (16.8 %), step = 1e-03       (55.6 m%)
    dc: VIN2 = -597e-03    (16.8 %), step = 1e-03       (55.6 m%)
    dc: VIN2 = -596e-03    (16.9 %), step = 1e-03       (55.6 m%)
    dc: VIN2 = -595e-03    (16.9 %), step = 1e-03       (55.6 m%)
    dc: VIN2 = -594e-03      (17 %), step = 1e-03       (55.6 m%)
    dc: VIN2 = -593e-03    (17.1 %), step = 1e-03       (55.6 m%)
    dc: VIN2 = -592e-03    (17.1 %), step = 1e-03       (55.6 m%)
    dc: VIN2 = -591e-03    (17.2 %), step = 1e-03       (55.6 m%)
    dc: VIN2 = -590e-03    (17.2 %), step = 1e-03       (55.6 m%)
    dc: VIN2 = -589e-03    (17.3 %), step = 1e-03       (55.6 m%)
    dc: VIN2 = -588e-03    (17.3 %), step = 1e-03       (55.6 m%)
    dc: VIN2 = -587e-03    (17.4 %), step = 1e-03       (55.6 m%)
    dc: VIN2 = -586e-03    (17.4 %), step = 1e-03       (55.6 m%)
    dc: VIN2 = -585e-03    (17.5 %), step = 1e-03       (55.6 m%)
    dc: VIN2 = -584e-03    (17.6 %), step = 1e-03       (55.6 m%)
    dc: VIN2 = -583e-03    (17.6 %), step = 1e-03       (55.6 m%)
    dc: VIN2 = -582e-03    (17.7 %), step = 1e-03       (55.6 m%)
    dc: VIN2 = -581e-03    (17.7 %), step = 1e-03       (55.6 m%)
    dc: VIN2 = -580e-03    (17.8 %), step = 1e-03       (55.6 m%)
    dc: VIN2 = -579e-03    (17.8 %), step = 1e-03       (55.6 m%)
    dc: VIN2 = -578e-03    (17.9 %), step = 1e-03       (55.6 m%)
    dc: VIN2 = -577e-03    (17.9 %), step = 1e-03       (55.6 m%)
    dc: VIN2 = -576e-03      (18 %), step = 1e-03       (55.6 m%)
    dc: VIN2 = -575e-03    (18.1 %), step = 1e-03       (55.6 m%)
    dc: VIN2 = -574e-03    (18.1 %), step = 1e-03       (55.6 m%)
    dc: VIN2 = -573e-03    (18.2 %), step = 1e-03       (55.6 m%)
    dc: VIN2 = -572e-03    (18.2 %), step = 1e-03       (55.6 m%)
    dc: VIN2 = -571e-03    (18.3 %), step = 1e-03       (55.6 m%)
    dc: VIN2 = -570e-03    (18.3 %), step = 1e-03       (55.6 m%)
    dc: VIN2 = -569e-03    (18.4 %), step = 1e-03       (55.6 m%)
    dc: VIN2 = -568e-03    (18.4 %), step = 1e-03       (55.6 m%)
    dc: VIN2 = -567e-03    (18.5 %), step = 1e-03       (55.6 m%)
    dc: VIN2 = -566e-03    (18.6 %), step = 1e-03       (55.6 m%)
    dc: VIN2 = -565e-03    (18.6 %), step = 1e-03       (55.6 m%)
    dc: VIN2 = -564e-03    (18.7 %), step = 1e-03       (55.6 m%)
    dc: VIN2 = -563e-03    (18.7 %), step = 1e-03       (55.6 m%)
    dc: VIN2 = -562e-03    (18.8 %), step = 1e-03       (55.6 m%)
    dc: VIN2 = -561e-03    (18.8 %), step = 1e-03       (55.6 m%)
    dc: VIN2 = -560e-03    (18.9 %), step = 1e-03       (55.6 m%)
    dc: VIN2 = -559e-03    (18.9 %), step = 1e-03       (55.6 m%)
    dc: VIN2 = -558e-03      (19 %), step = 1e-03       (55.6 m%)
    dc: VIN2 = -557e-03    (19.1 %), step = 1e-03       (55.6 m%)
    dc: VIN2 = -556e-03    (19.1 %), step = 1e-03       (55.6 m%)
    dc: VIN2 = -555e-03    (19.2 %), step = 1e-03       (55.6 m%)
    dc: VIN2 = -554e-03    (19.2 %), step = 1e-03       (55.6 m%)
    dc: VIN2 = -553e-03    (19.3 %), step = 1e-03       (55.6 m%)
    dc: VIN2 = -552e-03    (19.3 %), step = 1e-03       (55.6 m%)
    dc: VIN2 = -551e-03    (19.4 %), step = 1e-03       (55.6 m%)
    dc: VIN2 = -550e-03    (19.4 %), step = 1e-03       (55.6 m%)
    dc: VIN2 = -549e-03    (19.5 %), step = 1e-03       (55.6 m%)
    dc: VIN2 = -548e-03    (19.6 %), step = 1e-03       (55.6 m%)
    dc: VIN2 = -547e-03    (19.6 %), step = 1e-03       (55.6 m%)
    dc: VIN2 = -546e-03    (19.7 %), step = 1e-03       (55.6 m%)
    dc: VIN2 = -545e-03    (19.7 %), step = 1e-03       (55.6 m%)
    dc: VIN2 = -544e-03    (19.8 %), step = 1e-03       (55.6 m%)
    dc: VIN2 = -543e-03    (19.8 %), step = 1e-03       (55.6 m%)
    dc: VIN2 = -542e-03    (19.9 %), step = 1e-03       (55.6 m%)
    dc: VIN2 = -541e-03    (19.9 %), step = 1e-03       (55.6 m%)
    dc: VIN2 = -540e-03      (20 %), step = 1e-03       (55.6 m%)
    dc: VIN2 = -539e-03    (20.1 %), step = 1e-03       (55.6 m%)
    dc: VIN2 = -538e-03    (20.1 %), step = 1e-03       (55.6 m%)
    dc: VIN2 = -537e-03    (20.2 %), step = 1e-03       (55.6 m%)
    dc: VIN2 = -536e-03    (20.2 %), step = 1e-03       (55.6 m%)
    dc: VIN2 = -535e-03    (20.3 %), step = 1e-03       (55.6 m%)
    dc: VIN2 = -534e-03    (20.3 %), step = 1e-03       (55.6 m%)
    dc: VIN2 = -533e-03    (20.4 %), step = 1e-03       (55.6 m%)
    dc: VIN2 = -532e-03    (20.4 %), step = 1e-03       (55.6 m%)
    dc: VIN2 = -531e-03    (20.5 %), step = 1e-03       (55.6 m%)
    dc: VIN2 = -530e-03    (20.6 %), step = 1e-03       (55.6 m%)
    dc: VIN2 = -529e-03    (20.6 %), step = 1e-03       (55.6 m%)
    dc: VIN2 = -528e-03    (20.7 %), step = 1e-03       (55.6 m%)
    dc: VIN2 = -527e-03    (20.7 %), step = 1e-03       (55.6 m%)
    dc: VIN2 = -526e-03    (20.8 %), step = 1e-03       (55.6 m%)
    dc: VIN2 = -525e-03    (20.8 %), step = 1e-03       (55.6 m%)
    dc: VIN2 = -524e-03    (20.9 %), step = 1e-03       (55.6 m%)
    dc: VIN2 = -523e-03    (20.9 %), step = 1e-03       (55.6 m%)
    dc: VIN2 = -522e-03      (21 %), step = 1e-03       (55.6 m%)
    dc: VIN2 = -521e-03    (21.1 %), step = 1e-03       (55.6 m%)
    dc: VIN2 = -520e-03    (21.1 %), step = 1e-03       (55.6 m%)
    dc: VIN2 = -519e-03    (21.2 %), step = 1e-03       (55.6 m%)
    dc: VIN2 = -518e-03    (21.2 %), step = 1e-03       (55.6 m%)
    dc: VIN2 = -517e-03    (21.3 %), step = 1e-03       (55.6 m%)
    dc: VIN2 = -516e-03    (21.3 %), step = 1e-03       (55.6 m%)
    dc: VIN2 = -515e-03    (21.4 %), step = 1e-03       (55.6 m%)
    dc: VIN2 = -514e-03    (21.4 %), step = 1e-03       (55.6 m%)
    dc: VIN2 = -513e-03    (21.5 %), step = 1e-03       (55.6 m%)
    dc: VIN2 = -512e-03    (21.6 %), step = 1e-03       (55.6 m%)
    dc: VIN2 = -511e-03    (21.6 %), step = 1e-03       (55.6 m%)
    dc: VIN2 = -510e-03    (21.7 %), step = 1e-03       (55.6 m%)
    dc: VIN2 = -509e-03    (21.7 %), step = 1e-03       (55.6 m%)
    dc: VIN2 = -508e-03    (21.8 %), step = 1e-03       (55.6 m%)
    dc: VIN2 = -507e-03    (21.8 %), step = 1e-03       (55.6 m%)
    dc: VIN2 = -506e-03    (21.9 %), step = 1e-03       (55.6 m%)
    dc: VIN2 = -505e-03    (21.9 %), step = 1e-03       (55.6 m%)
    dc: VIN2 = -504e-03      (22 %), step = 1e-03       (55.6 m%)
    dc: VIN2 = -503e-03    (22.1 %), step = 1e-03       (55.6 m%)
    dc: VIN2 = -502e-03    (22.1 %), step = 1e-03       (55.6 m%)
    dc: VIN2 = -501e-03    (22.2 %), step = 1e-03       (55.6 m%)
    dc: VIN2 = -500e-03    (22.2 %), step = 1e-03       (55.6 m%)
    dc: VIN2 = -499e-03    (22.3 %), step = 1e-03       (55.6 m%)
    dc: VIN2 = -498e-03    (22.3 %), step = 1e-03       (55.6 m%)
    dc: VIN2 = -497e-03    (22.4 %), step = 1e-03       (55.6 m%)
    dc: VIN2 = -496e-03    (22.4 %), step = 1e-03       (55.6 m%)
    dc: VIN2 = -495e-03    (22.5 %), step = 1e-03       (55.6 m%)
    dc: VIN2 = -494e-03    (22.6 %), step = 1e-03       (55.6 m%)
    dc: VIN2 = -493e-03    (22.6 %), step = 1e-03       (55.6 m%)
    dc: VIN2 = -492e-03    (22.7 %), step = 1e-03       (55.6 m%)
    dc: VIN2 = -491e-03    (22.7 %), step = 1e-03       (55.6 m%)
    dc: VIN2 = -490e-03    (22.8 %), step = 1e-03       (55.6 m%)
    dc: VIN2 = -489e-03    (22.8 %), step = 1e-03       (55.6 m%)
    dc: VIN2 = -488e-03    (22.9 %), step = 1e-03       (55.6 m%)
    dc: VIN2 = -487e-03    (22.9 %), step = 1e-03       (55.6 m%)
    dc: VIN2 = -486e-03      (23 %), step = 1e-03       (55.6 m%)
    dc: VIN2 = -485e-03    (23.1 %), step = 1e-03       (55.6 m%)
    dc: VIN2 = -484e-03    (23.1 %), step = 1e-03       (55.6 m%)
    dc: VIN2 = -483e-03    (23.2 %), step = 1e-03       (55.6 m%)
    dc: VIN2 = -482e-03    (23.2 %), step = 1e-03       (55.6 m%)
    dc: VIN2 = -481e-03    (23.3 %), step = 1e-03       (55.6 m%)
    dc: VIN2 = -480e-03    (23.3 %), step = 1e-03       (55.6 m%)
    dc: VIN2 = -479e-03    (23.4 %), step = 1e-03       (55.6 m%)
    dc: VIN2 = -478e-03    (23.4 %), step = 1e-03       (55.6 m%)
    dc: VIN2 = -477e-03    (23.5 %), step = 1e-03       (55.6 m%)
    dc: VIN2 = -476e-03    (23.6 %), step = 1e-03       (55.6 m%)
    dc: VIN2 = -475e-03    (23.6 %), step = 1e-03       (55.6 m%)
    dc: VIN2 = -474e-03    (23.7 %), step = 1e-03       (55.6 m%)
    dc: VIN2 = -473e-03    (23.7 %), step = 1e-03       (55.6 m%)
    dc: VIN2 = -472e-03    (23.8 %), step = 1e-03       (55.6 m%)
    dc: VIN2 = -471e-03    (23.8 %), step = 1e-03       (55.6 m%)
    dc: VIN2 = -470e-03    (23.9 %), step = 1e-03       (55.6 m%)
    dc: VIN2 = -469e-03    (23.9 %), step = 1e-03       (55.6 m%)
    dc: VIN2 = -468e-03      (24 %), step = 1e-03       (55.6 m%)
    dc: VIN2 = -467e-03    (24.1 %), step = 1e-03       (55.6 m%)
    dc: VIN2 = -466e-03    (24.1 %), step = 1e-03       (55.6 m%)
    dc: VIN2 = -465e-03    (24.2 %), step = 1e-03       (55.6 m%)
    dc: VIN2 = -464e-03    (24.2 %), step = 1e-03       (55.6 m%)
    dc: VIN2 = -463e-03    (24.3 %), step = 1e-03       (55.6 m%)
    dc: VIN2 = -462e-03    (24.3 %), step = 1e-03       (55.6 m%)
    dc: VIN2 = -461e-03    (24.4 %), step = 1e-03       (55.6 m%)
    dc: VIN2 = -460e-03    (24.4 %), step = 1e-03       (55.6 m%)
    dc: VIN2 = -459e-03    (24.5 %), step = 1e-03       (55.6 m%)
    dc: VIN2 = -458e-03    (24.6 %), step = 1e-03       (55.6 m%)
    dc: VIN2 = -457e-03    (24.6 %), step = 1e-03       (55.6 m%)
    dc: VIN2 = -456e-03    (24.7 %), step = 1e-03       (55.6 m%)
    dc: VIN2 = -455e-03    (24.7 %), step = 1e-03       (55.6 m%)
    dc: VIN2 = -454e-03    (24.8 %), step = 1e-03       (55.6 m%)
    dc: VIN2 = -453e-03    (24.8 %), step = 1e-03       (55.6 m%)
    dc: VIN2 = -452e-03    (24.9 %), step = 1e-03       (55.6 m%)
    dc: VIN2 = -451e-03    (24.9 %), step = 1e-03       (55.6 m%)
    dc: VIN2 = -450e-03      (25 %), step = 1e-03       (55.6 m%)
    dc: VIN2 = -449e-03    (25.1 %), step = 1e-03       (55.6 m%)
    dc: VIN2 = -448e-03    (25.1 %), step = 1e-03       (55.6 m%)
    dc: VIN2 = -447e-03    (25.2 %), step = 1e-03       (55.6 m%)
    dc: VIN2 = -446e-03    (25.2 %), step = 1e-03       (55.6 m%)
    dc: VIN2 = -445e-03    (25.3 %), step = 1e-03       (55.6 m%)
    dc: VIN2 = -444e-03    (25.3 %), step = 1e-03       (55.6 m%)
    dc: VIN2 = -443e-03    (25.4 %), step = 1e-03       (55.6 m%)
    dc: VIN2 = -442e-03    (25.4 %), step = 1e-03       (55.6 m%)
    dc: VIN2 = -441e-03    (25.5 %), step = 1e-03       (55.6 m%)
    dc: VIN2 = -440e-03    (25.6 %), step = 1e-03       (55.6 m%)
    dc: VIN2 = -439e-03    (25.6 %), step = 1e-03       (55.6 m%)
    dc: VIN2 = -438e-03    (25.7 %), step = 1e-03       (55.6 m%)
    dc: VIN2 = -437e-03    (25.7 %), step = 1e-03       (55.6 m%)
    dc: VIN2 = -436e-03    (25.8 %), step = 1e-03       (55.6 m%)
    dc: VIN2 = -435e-03    (25.8 %), step = 1e-03       (55.6 m%)
    dc: VIN2 = -434e-03    (25.9 %), step = 1e-03       (55.6 m%)
    dc: VIN2 = -433e-03    (25.9 %), step = 1e-03       (55.6 m%)
    dc: VIN2 = -432e-03      (26 %), step = 1e-03       (55.6 m%)
    dc: VIN2 = -431e-03    (26.1 %), step = 1e-03       (55.6 m%)
    dc: VIN2 = -430e-03    (26.1 %), step = 1e-03       (55.6 m%)
    dc: VIN2 = -429e-03    (26.2 %), step = 1e-03       (55.6 m%)
    dc: VIN2 = -428e-03    (26.2 %), step = 1e-03       (55.6 m%)
    dc: VIN2 = -427e-03    (26.3 %), step = 1e-03       (55.6 m%)
    dc: VIN2 = -426e-03    (26.3 %), step = 1e-03       (55.6 m%)
    dc: VIN2 = -425e-03    (26.4 %), step = 1e-03       (55.6 m%)
    dc: VIN2 = -424e-03    (26.4 %), step = 1e-03       (55.6 m%)
    dc: VIN2 = -423e-03    (26.5 %), step = 1e-03       (55.6 m%)
    dc: VIN2 = -422e-03    (26.6 %), step = 1e-03       (55.6 m%)
    dc: VIN2 = -421e-03    (26.6 %), step = 1e-03       (55.6 m%)
    dc: VIN2 = -420e-03    (26.7 %), step = 1e-03       (55.6 m%)
    dc: VIN2 = -419e-03    (26.7 %), step = 1e-03       (55.6 m%)
    dc: VIN2 = -418e-03    (26.8 %), step = 1e-03       (55.6 m%)
    dc: VIN2 = -417e-03    (26.8 %), step = 1e-03       (55.6 m%)
    dc: VIN2 = -416e-03    (26.9 %), step = 1e-03       (55.6 m%)
    dc: VIN2 = -415e-03    (26.9 %), step = 1e-03       (55.6 m%)
    dc: VIN2 = -414e-03      (27 %), step = 1e-03       (55.6 m%)
    dc: VIN2 = -413e-03    (27.1 %), step = 1e-03       (55.6 m%)
    dc: VIN2 = -412e-03    (27.1 %), step = 1e-03       (55.6 m%)
    dc: VIN2 = -411e-03    (27.2 %), step = 1e-03       (55.6 m%)
    dc: VIN2 = -410e-03    (27.2 %), step = 1e-03       (55.6 m%)
    dc: VIN2 = -409e-03    (27.3 %), step = 1e-03       (55.6 m%)
    dc: VIN2 = -408e-03    (27.3 %), step = 1e-03       (55.6 m%)
    dc: VIN2 = -407e-03    (27.4 %), step = 1e-03       (55.6 m%)
    dc: VIN2 = -406e-03    (27.4 %), step = 1e-03       (55.6 m%)
    dc: VIN2 = -405e-03    (27.5 %), step = 1e-03       (55.6 m%)
    dc: VIN2 = -404e-03    (27.6 %), step = 1e-03       (55.6 m%)
    dc: VIN2 = -403e-03    (27.6 %), step = 1e-03       (55.6 m%)
    dc: VIN2 = -402e-03    (27.7 %), step = 1e-03       (55.6 m%)
    dc: VIN2 = -401e-03    (27.7 %), step = 1e-03       (55.6 m%)
    dc: VIN2 = -400e-03    (27.8 %), step = 1e-03       (55.6 m%)
    dc: VIN2 = -399e-03    (27.8 %), step = 1e-03       (55.6 m%)
    dc: VIN2 = -398e-03    (27.9 %), step = 1e-03       (55.6 m%)
    dc: VIN2 = -397e-03    (27.9 %), step = 1e-03       (55.6 m%)
    dc: VIN2 = -396e-03      (28 %), step = 1e-03       (55.6 m%)
    dc: VIN2 = -395e-03    (28.1 %), step = 1e-03       (55.6 m%)
    dc: VIN2 = -394e-03    (28.1 %), step = 1e-03       (55.6 m%)
    dc: VIN2 = -393e-03    (28.2 %), step = 1e-03       (55.6 m%)
    dc: VIN2 = -392e-03    (28.2 %), step = 1e-03       (55.6 m%)
    dc: VIN2 = -391e-03    (28.3 %), step = 1e-03       (55.6 m%)
    dc: VIN2 = -390e-03    (28.3 %), step = 1e-03       (55.6 m%)
    dc: VIN2 = -389e-03    (28.4 %), step = 1e-03       (55.6 m%)
    dc: VIN2 = -388e-03    (28.4 %), step = 1e-03       (55.6 m%)
    dc: VIN2 = -387e-03    (28.5 %), step = 1e-03       (55.6 m%)
    dc: VIN2 = -386e-03    (28.6 %), step = 1e-03       (55.6 m%)
    dc: VIN2 = -385e-03    (28.6 %), step = 1e-03       (55.6 m%)
    dc: VIN2 = -384e-03    (28.7 %), step = 1e-03       (55.6 m%)
    dc: VIN2 = -383e-03    (28.7 %), step = 1e-03       (55.6 m%)
    dc: VIN2 = -382e-03    (28.8 %), step = 1e-03       (55.6 m%)
    dc: VIN2 = -381e-03    (28.8 %), step = 1e-03       (55.6 m%)
    dc: VIN2 = -380e-03    (28.9 %), step = 1e-03       (55.6 m%)
    dc: VIN2 = -379e-03    (28.9 %), step = 1e-03       (55.6 m%)
    dc: VIN2 = -378e-03      (29 %), step = 1e-03       (55.6 m%)
    dc: VIN2 = -377e-03    (29.1 %), step = 1e-03       (55.6 m%)
    dc: VIN2 = -376e-03    (29.1 %), step = 1e-03       (55.6 m%)
    dc: VIN2 = -375e-03    (29.2 %), step = 1e-03       (55.6 m%)
    dc: VIN2 = -374e-03    (29.2 %), step = 1e-03       (55.6 m%)
    dc: VIN2 = -373e-03    (29.3 %), step = 1e-03       (55.6 m%)
    dc: VIN2 = -372e-03    (29.3 %), step = 1e-03       (55.6 m%)
    dc: VIN2 = -371e-03    (29.4 %), step = 1e-03       (55.6 m%)
    dc: VIN2 = -370e-03    (29.4 %), step = 1e-03       (55.6 m%)
    dc: VIN2 = -369e-03    (29.5 %), step = 1e-03       (55.6 m%)
    dc: VIN2 = -368e-03    (29.6 %), step = 1e-03       (55.6 m%)
    dc: VIN2 = -367e-03    (29.6 %), step = 1e-03       (55.6 m%)
    dc: VIN2 = -366e-03    (29.7 %), step = 1e-03       (55.6 m%)
    dc: VIN2 = -365e-03    (29.7 %), step = 1e-03       (55.6 m%)
    dc: VIN2 = -364e-03    (29.8 %), step = 1e-03       (55.6 m%)
    dc: VIN2 = -363e-03    (29.8 %), step = 1e-03       (55.6 m%)
    dc: VIN2 = -362e-03    (29.9 %), step = 1e-03       (55.6 m%)
    dc: VIN2 = -361e-03    (29.9 %), step = 1e-03       (55.6 m%)
    dc: VIN2 = -360e-03      (30 %), step = 1e-03       (55.6 m%)
    dc: VIN2 = -359e-03    (30.1 %), step = 1e-03       (55.6 m%)
    dc: VIN2 = -358e-03    (30.1 %), step = 1e-03       (55.6 m%)
    dc: VIN2 = -357e-03    (30.2 %), step = 1e-03       (55.6 m%)
    dc: VIN2 = -356e-03    (30.2 %), step = 1e-03       (55.6 m%)
    dc: VIN2 = -355e-03    (30.3 %), step = 1e-03       (55.6 m%)
    dc: VIN2 = -354e-03    (30.3 %), step = 1e-03       (55.6 m%)
    dc: VIN2 = -353e-03    (30.4 %), step = 1e-03       (55.6 m%)
    dc: VIN2 = -352e-03    (30.4 %), step = 1e-03       (55.6 m%)
    dc: VIN2 = -351e-03    (30.5 %), step = 1e-03       (55.6 m%)
    dc: VIN2 = -350e-03    (30.6 %), step = 1e-03       (55.6 m%)
    dc: VIN2 = -349e-03    (30.6 %), step = 1e-03       (55.6 m%)
    dc: VIN2 = -348e-03    (30.7 %), step = 1e-03       (55.6 m%)
    dc: VIN2 = -347e-03    (30.7 %), step = 1e-03       (55.6 m%)
    dc: VIN2 = -346e-03    (30.8 %), step = 1e-03       (55.6 m%)
    dc: VIN2 = -345e-03    (30.8 %), step = 1e-03       (55.6 m%)
    dc: VIN2 = -344e-03    (30.9 %), step = 1e-03       (55.6 m%)
    dc: VIN2 = -343e-03    (30.9 %), step = 1e-03       (55.6 m%)
    dc: VIN2 = -342e-03      (31 %), step = 1e-03       (55.6 m%)
    dc: VIN2 = -341e-03    (31.1 %), step = 1e-03       (55.6 m%)
    dc: VIN2 = -340e-03    (31.1 %), step = 1e-03       (55.6 m%)
    dc: VIN2 = -339e-03    (31.2 %), step = 1e-03       (55.6 m%)
    dc: VIN2 = -338e-03    (31.2 %), step = 1e-03       (55.6 m%)
    dc: VIN2 = -337e-03    (31.3 %), step = 1e-03       (55.6 m%)
    dc: VIN2 = -336e-03    (31.3 %), step = 1e-03       (55.6 m%)
    dc: VIN2 = -335e-03    (31.4 %), step = 1e-03       (55.6 m%)
    dc: VIN2 = -334e-03    (31.4 %), step = 1e-03       (55.6 m%)
    dc: VIN2 = -333e-03    (31.5 %), step = 1e-03       (55.6 m%)
    dc: VIN2 = -332e-03    (31.6 %), step = 1e-03       (55.6 m%)
    dc: VIN2 = -331e-03    (31.6 %), step = 1e-03       (55.6 m%)
    dc: VIN2 = -330e-03    (31.7 %), step = 1e-03       (55.6 m%)
    dc: VIN2 = -329e-03    (31.7 %), step = 1e-03       (55.6 m%)
    dc: VIN2 = -328e-03    (31.8 %), step = 1e-03       (55.6 m%)
    dc: VIN2 = -327e-03    (31.8 %), step = 1e-03       (55.6 m%)
    dc: VIN2 = -326e-03    (31.9 %), step = 1e-03       (55.6 m%)
    dc: VIN2 = -325e-03    (31.9 %), step = 1e-03       (55.6 m%)
    dc: VIN2 = -324e-03      (32 %), step = 1e-03       (55.6 m%)
    dc: VIN2 = -323e-03    (32.1 %), step = 1e-03       (55.6 m%)
    dc: VIN2 = -322e-03    (32.1 %), step = 1e-03       (55.6 m%)
    dc: VIN2 = -321e-03    (32.2 %), step = 1e-03       (55.6 m%)
    dc: VIN2 = -320e-03    (32.2 %), step = 1e-03       (55.6 m%)
    dc: VIN2 = -319e-03    (32.3 %), step = 1e-03       (55.6 m%)
    dc: VIN2 = -318e-03    (32.3 %), step = 1e-03       (55.6 m%)
    dc: VIN2 = -317e-03    (32.4 %), step = 1e-03       (55.6 m%)
    dc: VIN2 = -316e-03    (32.4 %), step = 1e-03       (55.6 m%)
    dc: VIN2 = -315e-03    (32.5 %), step = 1e-03       (55.6 m%)
    dc: VIN2 = -314e-03    (32.6 %), step = 1e-03       (55.6 m%)
    dc: VIN2 = -313e-03    (32.6 %), step = 1e-03       (55.6 m%)
    dc: VIN2 = -312e-03    (32.7 %), step = 1e-03       (55.6 m%)
    dc: VIN2 = -311e-03    (32.7 %), step = 1e-03       (55.6 m%)
    dc: VIN2 = -310e-03    (32.8 %), step = 1e-03       (55.6 m%)
    dc: VIN2 = -309e-03    (32.8 %), step = 1e-03       (55.6 m%)
    dc: VIN2 = -308e-03    (32.9 %), step = 1e-03       (55.6 m%)
    dc: VIN2 = -307e-03    (32.9 %), step = 1e-03       (55.6 m%)
    dc: VIN2 = -306e-03      (33 %), step = 1e-03       (55.6 m%)
    dc: VIN2 = -305e-03    (33.1 %), step = 1e-03       (55.6 m%)
    dc: VIN2 = -304e-03    (33.1 %), step = 1e-03       (55.6 m%)
    dc: VIN2 = -303e-03    (33.2 %), step = 1e-03       (55.6 m%)
    dc: VIN2 = -302e-03    (33.2 %), step = 1e-03       (55.6 m%)
    dc: VIN2 = -301e-03    (33.3 %), step = 1e-03       (55.6 m%)
    dc: VIN2 = -300e-03    (33.3 %), step = 1e-03       (55.6 m%)
    dc: VIN2 = -299e-03    (33.4 %), step = 1e-03       (55.6 m%)
    dc: VIN2 = -298e-03    (33.4 %), step = 1e-03       (55.6 m%)
    dc: VIN2 = -297e-03    (33.5 %), step = 1e-03       (55.6 m%)
    dc: VIN2 = -296e-03    (33.6 %), step = 1e-03       (55.6 m%)
    dc: VIN2 = -295e-03    (33.6 %), step = 1e-03       (55.6 m%)
    dc: VIN2 = -294e-03    (33.7 %), step = 1e-03       (55.6 m%)
    dc: VIN2 = -293e-03    (33.7 %), step = 1e-03       (55.6 m%)
    dc: VIN2 = -292e-03    (33.8 %), step = 1e-03       (55.6 m%)
    dc: VIN2 = -291e-03    (33.8 %), step = 1e-03       (55.6 m%)
    dc: VIN2 = -290e-03    (33.9 %), step = 1e-03       (55.6 m%)
    dc: VIN2 = -289e-03    (33.9 %), step = 1e-03       (55.6 m%)
    dc: VIN2 = -288e-03      (34 %), step = 1e-03       (55.6 m%)
    dc: VIN2 = -287e-03    (34.1 %), step = 1e-03       (55.6 m%)
    dc: VIN2 = -286e-03    (34.1 %), step = 1e-03       (55.6 m%)
    dc: VIN2 = -285e-03    (34.2 %), step = 1e-03       (55.6 m%)
    dc: VIN2 = -284e-03    (34.2 %), step = 1e-03       (55.6 m%)
    dc: VIN2 = -283e-03    (34.3 %), step = 1e-03       (55.6 m%)
    dc: VIN2 = -282e-03    (34.3 %), step = 1e-03       (55.6 m%)
    dc: VIN2 = -281e-03    (34.4 %), step = 1e-03       (55.6 m%)
    dc: VIN2 = -280e-03    (34.4 %), step = 1e-03       (55.6 m%)
    dc: VIN2 = -279e-03    (34.5 %), step = 1e-03       (55.6 m%)
    dc: VIN2 = -278e-03    (34.6 %), step = 1e-03       (55.6 m%)
    dc: VIN2 = -277e-03    (34.6 %), step = 1e-03       (55.6 m%)
    dc: VIN2 = -276e-03    (34.7 %), step = 1e-03       (55.6 m%)
    dc: VIN2 = -275e-03    (34.7 %), step = 1e-03       (55.6 m%)
    dc: VIN2 = -274e-03    (34.8 %), step = 1e-03       (55.6 m%)
    dc: VIN2 = -273e-03    (34.8 %), step = 1e-03       (55.6 m%)
    dc: VIN2 = -272e-03    (34.9 %), step = 1e-03       (55.6 m%)
    dc: VIN2 = -271e-03    (34.9 %), step = 1e-03       (55.6 m%)
    dc: VIN2 = -270e-03      (35 %), step = 1e-03       (55.6 m%)
    dc: VIN2 = -269e-03    (35.1 %), step = 1e-03       (55.6 m%)
    dc: VIN2 = -268e-03    (35.1 %), step = 1e-03       (55.6 m%)
    dc: VIN2 = -267e-03    (35.2 %), step = 1e-03       (55.6 m%)
    dc: VIN2 = -266e-03    (35.2 %), step = 1e-03       (55.6 m%)
    dc: VIN2 = -265e-03    (35.3 %), step = 1e-03       (55.6 m%)
    dc: VIN2 = -264e-03    (35.3 %), step = 1e-03       (55.6 m%)
    dc: VIN2 = -263e-03    (35.4 %), step = 1e-03       (55.6 m%)
    dc: VIN2 = -262e-03    (35.4 %), step = 1e-03       (55.6 m%)
    dc: VIN2 = -261e-03    (35.5 %), step = 1e-03       (55.6 m%)
    dc: VIN2 = -260e-03    (35.6 %), step = 1e-03       (55.6 m%)
    dc: VIN2 = -259e-03    (35.6 %), step = 1e-03       (55.6 m%)
    dc: VIN2 = -258e-03    (35.7 %), step = 1e-03       (55.6 m%)
    dc: VIN2 = -257e-03    (35.7 %), step = 1e-03       (55.6 m%)
    dc: VIN2 = -256e-03    (35.8 %), step = 1e-03       (55.6 m%)
    dc: VIN2 = -255e-03    (35.8 %), step = 1e-03       (55.6 m%)
    dc: VIN2 = -254e-03    (35.9 %), step = 1e-03       (55.6 m%)
    dc: VIN2 = -253e-03    (35.9 %), step = 1e-03       (55.6 m%)
[...]
    dc: VIN2 = 677e-03     (87.6 %), step = 1e-03       (55.6 m%)
    dc: VIN2 = 678e-03     (87.7 %), step = 1e-03       (55.6 m%)
    dc: VIN2 = 679e-03     (87.7 %), step = 1e-03       (55.6 m%)
    dc: VIN2 = 680e-03     (87.8 %), step = 1e-03       (55.6 m%)
    dc: VIN2 = 681e-03     (87.8 %), step = 1e-03       (55.6 m%)
    dc: VIN2 = 682e-03     (87.9 %), step = 1e-03       (55.6 m%)
    dc: VIN2 = 683e-03     (87.9 %), step = 1e-03       (55.6 m%)
    dc: VIN2 = 684e-03       (88 %), step = 1e-03       (55.6 m%)
    dc: VIN2 = 685e-03     (88.1 %), step = 1e-03       (55.6 m%)
    dc: VIN2 = 686e-03     (88.1 %), step = 1e-03       (55.6 m%)
    dc: VIN2 = 687e-03     (88.2 %), step = 1e-03       (55.6 m%)
    dc: VIN2 = 688e-03     (88.2 %), step = 1e-03       (55.6 m%)
    dc: VIN2 = 689e-03     (88.3 %), step = 1e-03       (55.6 m%)
    dc: VIN2 = 690e-03     (88.3 %), step = 1e-03       (55.6 m%)
    dc: VIN2 = 691e-03     (88.4 %), step = 1e-03       (55.6 m%)
    dc: VIN2 = 692e-03     (88.4 %), step = 1e-03       (55.6 m%)
    dc: VIN2 = 693e-03     (88.5 %), step = 1e-03       (55.6 m%)
    dc: VIN2 = 694e-03     (88.6 %), step = 1e-03       (55.6 m%)
    dc: VIN2 = 695e-03     (88.6 %), step = 1e-03       (55.6 m%)
    dc: VIN2 = 696e-03     (88.7 %), step = 1e-03       (55.6 m%)
    dc: VIN2 = 697e-03     (88.7 %), step = 1e-03       (55.6 m%)
    dc: VIN2 = 698e-03     (88.8 %), step = 1e-03       (55.6 m%)
    dc: VIN2 = 699e-03     (88.8 %), step = 1e-03       (55.6 m%)
    dc: VIN2 = 700e-03     (88.9 %), step = 1e-03       (55.6 m%)
    dc: VIN2 = 701e-03     (88.9 %), step = 1e-03       (55.6 m%)
    dc: VIN2 = 702e-03       (89 %), step = 1e-03       (55.6 m%)
    dc: VIN2 = 703e-03     (89.1 %), step = 1e-03       (55.6 m%)
    dc: VIN2 = 704e-03     (89.1 %), step = 1e-03       (55.6 m%)
    dc: VIN2 = 705e-03     (89.2 %), step = 1e-03       (55.6 m%)
    dc: VIN2 = 706e-03     (89.2 %), step = 1e-03       (55.6 m%)
    dc: VIN2 = 707e-03     (89.3 %), step = 1e-03       (55.6 m%)
    dc: VIN2 = 708e-03     (89.3 %), step = 1e-03       (55.6 m%)
    dc: VIN2 = 709e-03     (89.4 %), step = 1e-03       (55.6 m%)
    dc: VIN2 = 710e-03     (89.4 %), step = 1e-03       (55.6 m%)
    dc: VIN2 = 711e-03     (89.5 %), step = 1e-03       (55.6 m%)
    dc: VIN2 = 712e-03     (89.6 %), step = 1e-03       (55.6 m%)
    dc: VIN2 = 713e-03     (89.6 %), step = 1e-03       (55.6 m%)
    dc: VIN2 = 714e-03     (89.7 %), step = 1e-03       (55.6 m%)
    dc: VIN2 = 715e-03     (89.7 %), step = 1e-03       (55.6 m%)
    dc: VIN2 = 716e-03     (89.8 %), step = 1e-03       (55.6 m%)
    dc: VIN2 = 717e-03     (89.8 %), step = 1e-03       (55.6 m%)
    dc: VIN2 = 718e-03     (89.9 %), step = 1e-03       (55.6 m%)
    dc: VIN2 = 719e-03     (89.9 %), step = 1e-03       (55.6 m%)
    dc: VIN2 = 720e-03       (90 %), step = 1e-03       (55.6 m%)
    dc: VIN2 = 721e-03     (90.1 %), step = 1e-03       (55.6 m%)
    dc: VIN2 = 722e-03     (90.1 %), step = 1e-03       (55.6 m%)
    dc: VIN2 = 723e-03     (90.2 %), step = 1e-03       (55.6 m%)
    dc: VIN2 = 724e-03     (90.2 %), step = 1e-03       (55.6 m%)
    dc: VIN2 = 725e-03     (90.3 %), step = 1e-03       (55.6 m%)
    dc: VIN2 = 726e-03     (90.3 %), step = 1e-03       (55.6 m%)
    dc: VIN2 = 727e-03     (90.4 %), step = 1e-03       (55.6 m%)
    dc: VIN2 = 728e-03     (90.4 %), step = 1e-03       (55.6 m%)
    dc: VIN2 = 729e-03     (90.5 %), step = 1e-03       (55.6 m%)
    dc: VIN2 = 730e-03     (90.6 %), step = 1e-03       (55.6 m%)
    dc: VIN2 = 731e-03     (90.6 %), step = 1e-03       (55.6 m%)
    dc: VIN2 = 732e-03     (90.7 %), step = 1e-03       (55.6 m%)
    dc: VIN2 = 733e-03     (90.7 %), step = 1e-03       (55.6 m%)
    dc: VIN2 = 734e-03     (90.8 %), step = 1e-03       (55.6 m%)
    dc: VIN2 = 735e-03     (90.8 %), step = 1e-03       (55.6 m%)
    dc: VIN2 = 736e-03     (90.9 %), step = 1e-03       (55.6 m%)
    dc: VIN2 = 737e-03     (90.9 %), step = 1e-03       (55.6 m%)
    dc: VIN2 = 738e-03       (91 %), step = 1e-03       (55.6 m%)
    dc: VIN2 = 739e-03     (91.1 %), step = 1e-03       (55.6 m%)
    dc: VIN2 = 740e-03     (91.1 %), step = 1e-03       (55.6 m%)
    dc: VIN2 = 741e-03     (91.2 %), step = 1e-03       (55.6 m%)
    dc: VIN2 = 742e-03     (91.2 %), step = 1e-03       (55.6 m%)
    dc: VIN2 = 743e-03     (91.3 %), step = 1e-03       (55.6 m%)
    dc: VIN2 = 744e-03     (91.3 %), step = 1e-03       (55.6 m%)
    dc: VIN2 = 745e-03     (91.4 %), step = 1e-03       (55.6 m%)
    dc: VIN2 = 746e-03     (91.4 %), step = 1e-03       (55.6 m%)
    dc: VIN2 = 747e-03     (91.5 %), step = 1e-03       (55.6 m%)
    dc: VIN2 = 748e-03     (91.6 %), step = 1e-03       (55.6 m%)
    dc: VIN2 = 749e-03     (91.6 %), step = 1e-03       (55.6 m%)
    dc: VIN2 = 750e-03     (91.7 %), step = 1e-03       (55.6 m%)
    dc: VIN2 = 751e-03     (91.7 %), step = 1e-03       (55.6 m%)
    dc: VIN2 = 752e-03     (91.8 %), step = 1e-03       (55.6 m%)
    dc: VIN2 = 753e-03     (91.8 %), step = 1e-03       (55.6 m%)
    dc: VIN2 = 754e-03     (91.9 %), step = 1e-03       (55.6 m%)
    dc: VIN2 = 755e-03     (91.9 %), step = 1e-03       (55.6 m%)
    dc: VIN2 = 756e-03       (92 %), step = 1e-03       (55.6 m%)
    dc: VIN2 = 757e-03     (92.1 %), step = 1e-03       (55.6 m%)
    dc: VIN2 = 758e-03     (92.1 %), step = 1e-03       (55.6 m%)
    dc: VIN2 = 759e-03     (92.2 %), step = 1e-03       (55.6 m%)
    dc: VIN2 = 760e-03     (92.2 %), step = 1e-03       (55.6 m%)
    dc: VIN2 = 761e-03     (92.3 %), step = 1e-03       (55.6 m%)
    dc: VIN2 = 762e-03     (92.3 %), step = 1e-03       (55.6 m%)
    dc: VIN2 = 763e-03     (92.4 %), step = 1e-03       (55.6 m%)
    dc: VIN2 = 764e-03     (92.4 %), step = 1e-03       (55.6 m%)
    dc: VIN2 = 765e-03     (92.5 %), step = 1e-03       (55.6 m%)
    dc: VIN2 = 766e-03     (92.6 %), step = 1e-03       (55.6 m%)
    dc: VIN2 = 767e-03     (92.6 %), step = 1e-03       (55.6 m%)
    dc: VIN2 = 768e-03     (92.7 %), step = 1e-03       (55.6 m%)
    dc: VIN2 = 769e-03     (92.7 %), step = 1e-03       (55.6 m%)
    dc: VIN2 = 770e-03     (92.8 %), step = 1e-03       (55.6 m%)
    dc: VIN2 = 771e-03     (92.8 %), step = 1e-03       (55.6 m%)
    dc: VIN2 = 772e-03     (92.9 %), step = 1e-03       (55.6 m%)
    dc: VIN2 = 773e-03     (92.9 %), step = 1e-03       (55.6 m%)
    dc: VIN2 = 774e-03       (93 %), step = 1e-03       (55.6 m%)
    dc: VIN2 = 775e-03     (93.1 %), step = 1e-03       (55.6 m%)
    dc: VIN2 = 776e-03     (93.1 %), step = 1e-03       (55.6 m%)
    dc: VIN2 = 777e-03     (93.2 %), step = 1e-03       (55.6 m%)
    dc: VIN2 = 778e-03     (93.2 %), step = 1e-03       (55.6 m%)
    dc: VIN2 = 779e-03     (93.3 %), step = 1e-03       (55.6 m%)
    dc: VIN2 = 780e-03     (93.3 %), step = 1e-03       (55.6 m%)
    dc: VIN2 = 781e-03     (93.4 %), step = 1e-03       (55.6 m%)
    dc: VIN2 = 782e-03     (93.4 %), step = 1e-03       (55.6 m%)
    dc: VIN2 = 783e-03     (93.5 %), step = 1e-03       (55.6 m%)
    dc: VIN2 = 784e-03     (93.6 %), step = 1e-03       (55.6 m%)
    dc: VIN2 = 785e-03     (93.6 %), step = 1e-03       (55.6 m%)
    dc: VIN2 = 786e-03     (93.7 %), step = 1e-03       (55.6 m%)
    dc: VIN2 = 787e-03     (93.7 %), step = 1e-03       (55.6 m%)
    dc: VIN2 = 788e-03     (93.8 %), step = 1e-03       (55.6 m%)
    dc: VIN2 = 789e-03     (93.8 %), step = 1e-03       (55.6 m%)
    dc: VIN2 = 790e-03     (93.9 %), step = 1e-03       (55.6 m%)
    dc: VIN2 = 791e-03     (93.9 %), step = 1e-03       (55.6 m%)
    dc: VIN2 = 792e-03       (94 %), step = 1e-03       (55.6 m%)
    dc: VIN2 = 793e-03     (94.1 %), step = 1e-03       (55.6 m%)
    dc: VIN2 = 794e-03     (94.1 %), step = 1e-03       (55.6 m%)
    dc: VIN2 = 795e-03     (94.2 %), step = 1e-03       (55.6 m%)
    dc: VIN2 = 796e-03     (94.2 %), step = 1e-03       (55.6 m%)
    dc: VIN2 = 797e-03     (94.3 %), step = 1e-03       (55.6 m%)
    dc: VIN2 = 798e-03     (94.3 %), step = 1e-03       (55.6 m%)
    dc: VIN2 = 799e-03     (94.4 %), step = 1e-03       (55.6 m%)
    dc: VIN2 = 800e-03     (94.4 %), step = 1e-03       (55.6 m%)
    dc: VIN2 = 801e-03     (94.5 %), step = 1e-03       (55.6 m%)
    dc: VIN2 = 802e-03     (94.6 %), step = 1e-03       (55.6 m%)
    dc: VIN2 = 803e-03     (94.6 %), step = 1e-03       (55.6 m%)
    dc: VIN2 = 804e-03     (94.7 %), step = 1e-03       (55.6 m%)
    dc: VIN2 = 805e-03     (94.7 %), step = 1e-03       (55.6 m%)
    dc: VIN2 = 806e-03     (94.8 %), step = 1e-03       (55.6 m%)
    dc: VIN2 = 807e-03     (94.8 %), step = 1e-03       (55.6 m%)
    dc: VIN2 = 808e-03     (94.9 %), step = 1e-03       (55.6 m%)
    dc: VIN2 = 809e-03     (94.9 %), step = 1e-03       (55.6 m%)
    dc: VIN2 = 810e-03       (95 %), step = 1e-03       (55.6 m%)
    dc: VIN2 = 811e-03     (95.1 %), step = 1e-03       (55.6 m%)
    dc: VIN2 = 812e-03     (95.1 %), step = 1e-03       (55.6 m%)
    dc: VIN2 = 813e-03     (95.2 %), step = 1e-03       (55.6 m%)
    dc: VIN2 = 814e-03     (95.2 %), step = 1e-03       (55.6 m%)
    dc: VIN2 = 815e-03     (95.3 %), step = 1e-03       (55.6 m%)
    dc: VIN2 = 816e-03     (95.3 %), step = 1e-03       (55.6 m%)
    dc: VIN2 = 817e-03     (95.4 %), step = 1e-03       (55.6 m%)
    dc: VIN2 = 818e-03     (95.4 %), step = 1e-03       (55.6 m%)
    dc: VIN2 = 819e-03     (95.5 %), step = 1e-03       (55.6 m%)
    dc: VIN2 = 820e-03     (95.6 %), step = 1e-03       (55.6 m%)
    dc: VIN2 = 821e-03     (95.6 %), step = 1e-03       (55.6 m%)
    dc: VIN2 = 822e-03     (95.7 %), step = 1e-03       (55.6 m%)
    dc: VIN2 = 823e-03     (95.7 %), step = 1e-03       (55.6 m%)
    dc: VIN2 = 824e-03     (95.8 %), step = 1e-03       (55.6 m%)
    dc: VIN2 = 825e-03     (95.8 %), step = 1e-03       (55.6 m%)
    dc: VIN2 = 826e-03     (95.9 %), step = 1e-03       (55.6 m%)
    dc: VIN2 = 827e-03     (95.9 %), step = 1e-03       (55.6 m%)
    dc: VIN2 = 828e-03       (96 %), step = 1e-03       (55.6 m%)
    dc: VIN2 = 829e-03     (96.1 %), step = 1e-03       (55.6 m%)
    dc: VIN2 = 830e-03     (96.1 %), step = 1e-03       (55.6 m%)
    dc: VIN2 = 831e-03     (96.2 %), step = 1e-03       (55.6 m%)
    dc: VIN2 = 832e-03     (96.2 %), step = 1e-03       (55.6 m%)
    dc: VIN2 = 833e-03     (96.3 %), step = 1e-03       (55.6 m%)
    dc: VIN2 = 834e-03     (96.3 %), step = 1e-03       (55.6 m%)
    dc: VIN2 = 835e-03     (96.4 %), step = 1e-03       (55.6 m%)
    dc: VIN2 = 836e-03     (96.4 %), step = 1e-03       (55.6 m%)
    dc: VIN2 = 837e-03     (96.5 %), step = 1e-03       (55.6 m%)
    dc: VIN2 = 838e-03     (96.6 %), step = 1e-03       (55.6 m%)
    dc: VIN2 = 839e-03     (96.6 %), step = 1e-03       (55.6 m%)
    dc: VIN2 = 840e-03     (96.7 %), step = 1e-03       (55.6 m%)
    dc: VIN2 = 841e-03     (96.7 %), step = 1e-03       (55.6 m%)
    dc: VIN2 = 842e-03     (96.8 %), step = 1e-03       (55.6 m%)
    dc: VIN2 = 843e-03     (96.8 %), step = 1e-03       (55.6 m%)
    dc: VIN2 = 844e-03     (96.9 %), step = 1e-03       (55.6 m%)
    dc: VIN2 = 845e-03     (96.9 %), step = 1e-03       (55.6 m%)
    dc: VIN2 = 846e-03       (97 %), step = 1e-03       (55.6 m%)
    dc: VIN2 = 847e-03     (97.1 %), step = 1e-03       (55.6 m%)
    dc: VIN2 = 848e-03     (97.1 %), step = 1e-03       (55.6 m%)
    dc: VIN2 = 849e-03     (97.2 %), step = 1e-03       (55.6 m%)
    dc: VIN2 = 850e-03     (97.2 %), step = 1e-03       (55.6 m%)
    dc: VIN2 = 851e-03     (97.3 %), step = 1e-03       (55.6 m%)
    dc: VIN2 = 852e-03     (97.3 %), step = 1e-03       (55.6 m%)
    dc: VIN2 = 853e-03     (97.4 %), step = 1e-03       (55.6 m%)
    dc: VIN2 = 854e-03     (97.4 %), step = 1e-03       (55.6 m%)
    dc: VIN2 = 855e-03     (97.5 %), step = 1e-03       (55.6 m%)
    dc: VIN2 = 856e-03     (97.6 %), step = 1e-03       (55.6 m%)
    dc: VIN2 = 857e-03     (97.6 %), step = 1e-03       (55.6 m%)
    dc: VIN2 = 858e-03     (97.7 %), step = 1e-03       (55.6 m%)
    dc: VIN2 = 859e-03     (97.7 %), step = 1e-03       (55.6 m%)
    dc: VIN2 = 860e-03     (97.8 %), step = 1e-03       (55.6 m%)
    dc: VIN2 = 861e-03     (97.8 %), step = 1e-03       (55.6 m%)
    dc: VIN2 = 862e-03     (97.9 %), step = 1e-03       (55.6 m%)
    dc: VIN2 = 863e-03     (97.9 %), step = 1e-03       (55.6 m%)
    dc: VIN2 = 864e-03       (98 %), step = 1e-03       (55.6 m%)
    dc: VIN2 = 865e-03     (98.1 %), step = 1e-03       (55.6 m%)
    dc: VIN2 = 866e-03     (98.1 %), step = 1e-03       (55.6 m%)
    dc: VIN2 = 867e-03     (98.2 %), step = 1e-03       (55.6 m%)
    dc: VIN2 = 868e-03     (98.2 %), step = 1e-03       (55.6 m%)
    dc: VIN2 = 869e-03     (98.3 %), step = 1e-03       (55.6 m%)
    dc: VIN2 = 870e-03     (98.3 %), step = 1e-03       (55.6 m%)
    dc: VIN2 = 871e-03     (98.4 %), step = 1e-03       (55.6 m%)
    dc: VIN2 = 872e-03     (98.4 %), step = 1e-03       (55.6 m%)
    dc: VIN2 = 873e-03     (98.5 %), step = 1e-03       (55.6 m%)
    dc: VIN2 = 874e-03     (98.6 %), step = 1e-03       (55.6 m%)
    dc: VIN2 = 875e-03     (98.6 %), step = 1e-03       (55.6 m%)
    dc: VIN2 = 876e-03     (98.7 %), step = 1e-03       (55.6 m%)
    dc: VIN2 = 877e-03     (98.7 %), step = 1e-03       (55.6 m%)
    dc: VIN2 = 878e-03     (98.8 %), step = 1e-03       (55.6 m%)
    dc: VIN2 = 879e-03     (98.8 %), step = 1e-03       (55.6 m%)
    dc: VIN2 = 880e-03     (98.9 %), step = 1e-03       (55.6 m%)
    dc: VIN2 = 881e-03     (98.9 %), step = 1e-03       (55.6 m%)
    dc: VIN2 = 882e-03       (99 %), step = 1e-03       (55.6 m%)
    dc: VIN2 = 883e-03     (99.1 %), step = 1e-03       (55.6 m%)
    dc: VIN2 = 884e-03     (99.1 %), step = 1e-03       (55.6 m%)
    dc: VIN2 = 885e-03     (99.2 %), step = 1e-03       (55.6 m%)
    dc: VIN2 = 886e-03     (99.2 %), step = 1e-03       (55.6 m%)
    dc: VIN2 = 887e-03     (99.3 %), step = 1e-03       (55.6 m%)
    dc: VIN2 = 888e-03     (99.3 %), step = 1e-03       (55.6 m%)
    dc: VIN2 = 889e-03     (99.4 %), step = 1e-03       (55.6 m%)
    dc: VIN2 = 890e-03     (99.4 %), step = 1e-03       (55.6 m%)
    dc: VIN2 = 891e-03     (99.5 %), step = 1e-03       (55.6 m%)
    dc: VIN2 = 892e-03     (99.6 %), step = 1e-03       (55.6 m%)
    dc: VIN2 = 893e-03     (99.6 %), step = 1e-03       (55.6 m%)
    dc: VIN2 = 894e-03     (99.7 %), step = 1e-03       (55.6 m%)
    dc: VIN2 = 895e-03     (99.7 %), step = 1e-03       (55.6 m%)
    dc: VIN2 = 896e-03     (99.8 %), step = 1e-03       (55.6 m%)
    dc: VIN2 = 897e-03     (99.8 %), step = 1e-03       (55.6 m%)
    dc: VIN2 = 898e-03     (99.9 %), step = 1e-03       (55.6 m%)
    dc: VIN2 = 899e-03     (99.9 %), step = 1e-03       (55.6 m%)
    dc: VIN2 = 900e-03      (100 %), step = 1e-03       (55.6 m%)

Maximum value achieved for any signal of each quantity: 
V: V(net3) = 1.8 V
I: I(V1:p) = 172.5 uA
DC simulation time: CPU = 128.159 ms, elapsed = 153.852 ms.

Notice from spectre at VIN2 = 900e-03 during DC analysis `dc'.
    The value of parameter 'VIN2' has been reset to the original value 0.

Total time required for dc analysis `dc': CPU = 128.182 ms, elapsed = 153.882 ms, util. = 83.3%.
Time accumulated: CPU = 576.374 ms, elapsed = 1.10987 s.
Peak resident memory used = 223 Mbytes.


***********************************************
Transient Analysis `tran': time = (0 s -> 6 ms)
***********************************************
Convergence achieved in 6 iterations.
DC simulation time: CPU = 127 us, elapsed = 136.852 us.

Opening the PSFXL file ../psf/tran.tran.tran ...
Important parameter values:
    start = 0 s
    outputstart = 0 s
    stop = 6 ms
    step = 6 us
    maxstep = 60 us
    ic = all
    useprevic = no
    skipdc = no
    reltol = 100e-06
    abstol(V) = 1 uV
    abstol(I) = 1 pA
    temp = 27 C
    tnom = 27 C
    tempeffects = all
    errpreset = conservative
    method = gear2only
    lteratio = 10
    relref = alllocal
    cmin = 0 F
    gmin = 1 pS
    rabsshort = 1 mOhm


Notice from spectre during transient analysis `tran'.
    Multithreading is disabled due to the size of the design being too small.


Output and IC/nodeset summary:
                 save   5       (current)
                 save   9       (voltage)

    tran: time = 164.9 us    (2.75 %), step = 26.58 us     (443 m%)
    tran: time = 455.9 us     (7.6 %), step = 28.28 us     (471 m%)
    tran: time = 753.6 us    (12.6 %), step = 29.79 us     (497 m%)
    tran: time = 1.064 ms    (17.7 %), step = 25.49 us     (425 m%)
    tran: time = 1.373 ms    (22.9 %), step = 29.36 us     (489 m%)
    tran: time = 1.671 ms    (27.8 %), step = 27.67 us     (461 m%)
    tran: time = 1.966 ms    (32.8 %), step = 27.46 us     (458 m%)
    tran: time = 2.264 ms    (37.7 %), step = 29 us        (483 m%)
    tran: time = 2.57 ms     (42.8 %), step = 25.51 us     (425 m%)
    tran: time = 2.854 ms    (47.6 %), step = 29.6 us      (493 m%)
    tran: time = 3.154 ms    (52.6 %), step = 27.04 us     (451 m%)
    tran: time = 3.474 ms    (57.9 %), step = 26.97 us     (450 m%)
    tran: time = 3.774 ms    (62.9 %), step = 29.45 us     (491 m%)
    tran: time = 4.056 ms    (67.6 %), step = 25.49 us     (425 m%)
    tran: time = 4.364 ms    (72.7 %), step = 29.13 us     (485 m%)
    tran: time = 4.663 ms    (77.7 %), step = 27.34 us     (456 m%)
    tran: time = 4.958 ms    (82.6 %), step = 28.03 us     (467 m%)
    tran: time = 5.255 ms    (87.6 %), step = 29.19 us     (486 m%)
    tran: time = 5.563 ms    (92.7 %), step = 25.49 us     (425 m%)
    tran: time = 5.875 ms    (97.9 %), step = 30.04 us     (501 m%)
Number of accepted tran steps =             221

Maximum value achieved for any signal of each quantity: 
V: V(net3) = 1.8 V
I: I(V1:p) = 184.5 uA

~~~~~~~~~~~~~~~~~~~~~~~~~~~~~~~~~
Post-Transient Simulation Summary
~~~~~~~~~~~~~~~~~~~~~~~~~~~~~~~~~
   -   To further speed up simulation, consider
          add ++aps on command line
   -   Non-default settings that could significantly slow down simulation
          errpreset = conservative, default moderate
~~~~~~~~~~~~~~~~~~~~~~~~~~~~~~~~~


During simulation, the CPU load for active processors is :
         0 (1.0 %)       4 (3.0 %)       9 (6.2 %)      10 (34.4 %)
        11 (4.1 %)      14 (7.4 %)      
        Total: 56.1%
Initial condition solution time: CPU = 151 us, elapsed = 173.092 us.
Intrinsic tran analysis time:    CPU = 6.533 ms, elapsed = 12.2211 ms.
Total time required for tran analysis `tran': CPU = 7.836 ms, elapsed = 14.3039 ms, util. = 54.8%.
Time accumulated: CPU = 585.133 ms, elapsed = 1.12821 s.
Peak resident memory used = 225 Mbytes.

finalTimeOP: writing operating point information to rawfile.

Opening the PSF file ../psf/finalTimeOP.info ...
modelParameter: writing model parameter values to rawfile.

Opening the PSF file ../psf/modelParameter.info ...
element: writing instance parameter values to rawfile.

Opening the PSF file ../psf/element.info ...
outputParameter: writing output parameter values to rawfile.

Opening the PSF file ../psf/outputParameter.info ...
designParamVals: writing netlist parameters to rawfile.

Opening the PSFASCII file ../psf/designParamVals.info ...
primitives: writing primitives to rawfile.

Opening the PSFASCII file ../psf/primitives.info.primitives ...
subckts: writing subcircuits to rawfile.

Opening the PSFASCII file ../psf/subckts.info.subckts ...
Licensing Information:
Lic Summary:
[12:35:43.286530] Cdslmd servers:3000@lic08.ug.kth.se
[12:35:43.286579] Feature usage summary:
[12:35:43.286579] Virtuoso_Multi_mode_Simulation


Aggregate audit (12:35:43 PM, Mon Nov 17, 2025):
Time used: CPU = 599 ms, elapsed = 1.2 s, util. = 49.8%.
Time spent in licensing: elapsed = 288 ms, percentage of total = 23.9%.
Peak memory used = 227 Mbytes.
Simulation started at: 12:35:42 PM, Mon Nov 17, 2025, ended at: 12:35:43 PM, Mon Nov 17, 2025, with elapsed time (wall clock): 1.2 s.
spectre completes with 0 errors, 0 warnings, and 6 notices.
