
Spectre (R) Circuit Simulator
Version 24.1.0.288.isr5 64bit -- 3 Apr 2025
Copyright (C) 1989-2025 Cadence Design Systems, Inc. All rights reserved worldwide. Cadence and Spectre are registered trademarks of Cadence Design Systems, Inc. All others are the property of their respective holders.

Includes RSA BSAFE(R) Cryptographic or Security Protocol Software from RSA Security, Inc.

User: saul   Host: edatools   HostID: 11AC0200   PID: 99249
Memory  available: 24.6521 GB  physical: 27.3104 GB
Linux   : Rocky Linux release 8.10 (Green Obsidian)
CPU Type: 11th Gen Intel(R) Core(TM) i7-11700K @ 3.60GHz
All processors running at 3600.0 MHz
        Socket: Processors
        0:       0,  1,  2,  3,  4,  5,  6,  7,  8,  9
                10, 11, 12, 13, 14, 15
        
System load averages (1min, 5min, 15min) : 4.0 %, 4.2 %, 3.6 %
HPC is enabled


Simulating `input.scs' on edatools at 5:54:43 AM, Fri Nov 21, 2025 (process id: 99249).
Current working directory: /home/saul/projects/FIL3601/Sim/LAB3/Shunt/adexl/results/data/Interactive.59/1/rootlocus/netlist
Command line:
    /opt/tools/cadence/installs/SPECTRE241/tools/bin/spectre -64  \
        input.scs +escchars +log ../psf/spectre.out -format psfxl -raw  \
        ../psf +aps +mt +lqtimeout 900 -maxw 5 -maxn 5 -env ade  \
        -ahdllibdir  \
        /home/saul/projects/FIL3601/Sim/LAB3/Shunt/adexl/results/data/Interactive.59/sharedData/Job0/ahdl/input.ahdlSimDB  \
        +logstatus  \
        +adespetkn=0001089D13A302B663E41FB550AF0DF415A679A322D5069144BF588C12F604E07EF416DC01A319B562BB63D378FC3EB545A31AAA1BE2199902AF18EC73ED4F9266FD79D15D9175FF34980CBD6B9974D3349877CA11EF18A05BF743E72BCD47E60EAE79D12CF874D3349879D118F874D3349810CEE6588A735D87000036E1

Simulation Id: JfnPUL67mJPT3XRe
Licensing Information:
[05:54:43.188841] Configured Lic search path (24.01-s002): 3000@lic08.ug.kth.se

Licensing Information:
[05:54:43.274923] Periodic Lic check successful

Loading /opt/tools/cadence/installs/SPECTRE241/tools.lnx86/cmi/lib/64bit/5.0/libinfineon_sh.so ...
Loading /opt/tools/cadence/installs/SPECTRE241/tools.lnx86/cmi/lib/64bit/5.0/libphilips_I_sh.so ...
Loading /opt/tools/cadence/installs/SPECTRE241/tools.lnx86/cmi/lib/64bit/5.0/libphilips_sh.so ...
Loading /opt/tools/cadence/installs/SPECTRE241/tools.lnx86/cmi/lib/64bit/5.0/libsparam_sh.so ...
Loading /opt/tools/cadence/installs/SPECTRE241/tools.lnx86/cmi/lib/64bit/5.0/libstmodels_sh.so ...
Reading file:  /home/saul/projects/FIL3601/Sim/LAB3/Shunt/adexl/results/data/Interactive.59/1/rootlocus/netlist/input.scs
Reading file:  /opt/tools/cadence/installs/SPECTRE241/tools.lnx86/spectre/etc/configs/spectre.cfg
Reading file:  /opt/pdk/xfab/XKIT/xh018/cadence/v10_0/spectre/v10_0_2/lpmos/config.scs
Reading file:  /opt/pdk/xfab/XKIT/xh018/cadence/v10_0/spectre/v10_0_2/lpmos/param.scs
Reading file:  /opt/pdk/xfab/XKIT/xh018/cadence/v10_0/spectre/v10_0_2/lpmos/bip.scs
Reading file:  /opt/pdk/xfab/XKIT/xh018/cadence/v10_0/spectre/v10_0_2/lpmos/models/bip/tm_bip.scs
Reading file:  /opt/pdk/xfab/XKIT/xh018/cadence/v10_0/spectre/v10_0_2/lpmos/models/bip/qpva.scs
Reading file:  /opt/pdk/xfab/XKIT/xh018/cadence/v10_0/spectre/v10_0_2/lpmos/models/bip/qpvb.scs
Reading file:  /opt/pdk/xfab/XKIT/xh018/cadence/v10_0/spectre/v10_0_2/lpmos/models/bip/qpvc.scs
Reading file:  /opt/pdk/xfab/XKIT/xh018/cadence/v10_0/spectre/v10_0_2/lpmos/models/bip/qpva3.scs
Reading file:  /opt/pdk/xfab/XKIT/xh018/cadence/v10_0/spectre/v10_0_2/lpmos/models/bip/qpvb3.scs
Reading file:  /opt/pdk/xfab/XKIT/xh018/cadence/v10_0/spectre/v10_0_2/lpmos/models/bip/qpvc3.scs
Reading file:  /opt/pdk/xfab/XKIT/xh018/cadence/v10_0/spectre/v10_0_2/lpmos/models/bip/qnva.scs
Reading file:  /opt/pdk/xfab/XKIT/xh018/cadence/v10_0/spectre/v10_0_2/lpmos/models/bip/qnvb.scs
Reading file:  /opt/pdk/xfab/XKIT/xh018/cadence/v10_0/spectre/v10_0_2/lpmos/models/bip/qnvba.scs
Reading file:  /opt/pdk/xfab/XKIT/xh018/cadence/v10_0/spectre/v10_0_2/lpmos/models/bip/qnvbb.scs
Reading file:  /opt/pdk/xfab/XKIT/xh018/cadence/v10_0/spectre/v10_0_2/lpmos/models/bip/qnvc.scs
Reading file:  /opt/pdk/xfab/XKIT/xh018/cadence/v10_0/spectre/v10_0_2/lpmos/models/bip/qnvca.scs
Reading file:  /opt/pdk/xfab/XKIT/xh018/cadence/v10_0/spectre/v10_0_2/lpmos/models/bip/qnvcb.scs
Reading file:  /opt/pdk/xfab/XKIT/xh018/cadence/v10_0/spectre/v10_0_2/lpmos/models/bip/qpvhscr.scs
Reading file:  /opt/pdk/xfab/XKIT/xh018/cadence/v10_0/spectre/v10_0_2/lpmos/models/bip/qpvascr.scs
Reading file:  /opt/pdk/xfab/XKIT/xh018/cadence/v10_0/spectre/v10_0_2/lpmos/models/bip/qpvhbscr.scs
Reading file:  /opt/pdk/xfab/XKIT/xh018/cadence/v10_0/spectre/v10_0_2/lpmos/models/bip/qpv_pa.scs
Reading file:  /opt/pdk/xfab/XKIT/xh018/cadence/v10_0/spectre/v10_0_2/lpmos/models/bip/qpv_pb.scs
Reading file:  /opt/pdk/xfab/XKIT/xh018/cadence/v10_0/spectre/v10_0_2/lpmos/models/bip/qpv_pc.scs
Reading file:  /opt/pdk/xfab/XKIT/xh018/cadence/v10_0/spectre/v10_0_2/lpmos/models/bip/qpv_pd.scs
Reading file:  /opt/pdk/xfab/XKIT/xh018/cadence/v10_0/spectre/v10_0_2/lpmos/models/bip/qpv_pe.scs
Reading file:  /opt/pdk/xfab/XKIT/xh018/cadence/v10_0/spectre/v10_0_2/lpmos/models/bip/qpv_pf.scs
Reading file:  /opt/pdk/xfab/XKIT/xh018/cadence/v10_0/spectre/v10_0_2/lpmos/models/bip/qpl_pa.scs
Reading file:  /opt/pdk/xfab/XKIT/xh018/cadence/v10_0/spectre/v10_0_2/lpmos/models/bip/qpl_pb.scs
Reading file:  /opt/pdk/xfab/XKIT/xh018/cadence/v10_0/spectre/v10_0_2/lpmos/models/bip/qpl_pc.scs
Reading file:  /opt/pdk/xfab/XKIT/xh018/cadence/v10_0/spectre/v10_0_2/lpmos/models/bip/qpl_pd.scs
Reading file:  /opt/pdk/xfab/XKIT/xh018/cadence/v10_0/spectre/v10_0_2/lpmos/models/bip/qpl_pe.scs
Reading file:  /opt/pdk/xfab/XKIT/xh018/cadence/v10_0/spectre/v10_0_2/lpmos/models/bip/qpl_pf.scs
Reading file:  /opt/pdk/xfab/XKIT/xh018/cadence/v10_0/spectre/v10_0_2/lpmos/models/bip/qnl_pa.scs
Reading file:  /opt/pdk/xfab/XKIT/xh018/cadence/v10_0/spectre/v10_0_2/lpmos/models/bip/qnl_pb.scs
Reading file:  /opt/pdk/xfab/XKIT/xh018/cadence/v10_0/spectre/v10_0_2/lpmos/models/bip/qnl_pc.scs
Reading file:  /opt/pdk/xfab/XKIT/xh018/cadence/v10_0/spectre/v10_0_2/lpmos/models/bip/qnl_pd.scs
Reading file:  /opt/pdk/xfab/XKIT/xh018/cadence/v10_0/spectre/v10_0_2/lpmos/models/bip/qnl_pe.scs
Reading file:  /opt/pdk/xfab/XKIT/xh018/cadence/v10_0/spectre/v10_0_2/lpmos/models/bip/qnl_pf.scs
Reading file:  /opt/pdk/xfab/XKIT/xh018/cadence/v10_0/spectre/v10_0_2/lpmos/cap.scs
Reading file:  /opt/pdk/xfab/XKIT/xh018/cadence/v10_0/spectre/v10_0_2/lpmos/models/cap/tm_cap.scs
Reading file:  /opt/pdk/xfab/XKIT/xh018/cadence/v10_0/spectre/v10_0_2/lpmos/models/cap/csandwt3.scs
Reading file:  /opt/pdk/xfab/XKIT/xh018/cadence/v10_0/spectre/v10_0_2/lpmos/models/cap/csandwt4.scs
Reading file:  /opt/pdk/xfab/XKIT/xh018/cadence/v10_0/spectre/v10_0_2/lpmos/models/cap/csandwt5.scs
Reading file:  /opt/pdk/xfab/XKIT/xh018/cadence/v10_0/spectre/v10_0_2/lpmos/models/cap/csf2p.scs
Reading file:  /opt/pdk/xfab/XKIT/xh018/cadence/v10_0/spectre/v10_0_2/lpmos/models/cap/csf3p.scs
Reading file:  /opt/pdk/xfab/XKIT/xh018/cadence/v10_0/spectre/v10_0_2/lpmos/models/cap/csf3.scs
Reading file:  /opt/pdk/xfab/XKIT/xh018/cadence/v10_0/spectre/v10_0_2/lpmos/models/cap/csf4.scs
Reading file:  /opt/pdk/xfab/XKIT/xh018/cadence/v10_0/spectre/v10_0_2/lpmos/models/cap/csf5.scs
Reading file:  /opt/pdk/xfab/XKIT/xh018/cadence/v10_0/spectre/v10_0_2/lpmos/models/cap/csft4.scs
Reading file:  /opt/pdk/xfab/XKIT/xh018/cadence/v10_0/spectre/v10_0_2/lpmos/models/cap/csft5.scs
Reading file:  /opt/pdk/xfab/XKIT/xh018/cadence/v10_0/spectre/v10_0_2/lpmos/models/cap/csft6.scs
Reading file:  /opt/pdk/xfab/XKIT/xh018/cadence/v10_0/spectre/v10_0_2/lpmos/models/cap/csf3a.scs
Reading file:  /opt/pdk/xfab/XKIT/xh018/cadence/v10_0/spectre/v10_0_2/lpmos/models/cap/csf4a.scs
Reading file:  /opt/pdk/xfab/XKIT/xh018/cadence/v10_0/spectre/v10_0_2/lpmos/models/cap/csf5a.scs
Reading file:  /opt/pdk/xfab/XKIT/xh018/cadence/v10_0/spectre/v10_0_2/lpmos/models/cap/csft4a.scs
Reading file:  /opt/pdk/xfab/XKIT/xh018/cadence/v10_0/spectre/v10_0_2/lpmos/models/cap/csft5a.scs
Reading file:  /opt/pdk/xfab/XKIT/xh018/cadence/v10_0/spectre/v10_0_2/lpmos/models/cap/csft6a.scs
Reading file:  /opt/pdk/xfab/XKIT/xh018/cadence/v10_0/spectre/v10_0_2/lpmos/models/cap/cif3a.scs
Reading file:  /opt/pdk/xfab/XKIT/xh018/cadence/v10_0/spectre/v10_0_2/lpmos/models/cap/cif4a.scs
Reading file:  /opt/pdk/xfab/XKIT/xh018/cadence/v10_0/spectre/v10_0_2/lpmos/models/cap/cif5a.scs
Reading file:  /opt/pdk/xfab/XKIT/xh018/cadence/v10_0/spectre/v10_0_2/lpmos/models/cap/cift4a.scs
Reading file:  /opt/pdk/xfab/XKIT/xh018/cadence/v10_0/spectre/v10_0_2/lpmos/models/cap/cift5a.scs
Reading file:  /opt/pdk/xfab/XKIT/xh018/cadence/v10_0/spectre/v10_0_2/lpmos/models/cap/cift6a.scs
Reading file:  /opt/pdk/xfab/XKIT/xh018/cadence/v10_0/spectre/v10_0_2/lpmos/models/cap/cmm3.scs
Reading file:  /opt/pdk/xfab/XKIT/xh018/cadence/v10_0/spectre/v10_0_2/lpmos/models/cap/cmm4t.scs
Reading file:  /opt/pdk/xfab/XKIT/xh018/cadence/v10_0/spectre/v10_0_2/lpmos/models/cap/cmm4.scs
Reading file:  /opt/pdk/xfab/XKIT/xh018/cadence/v10_0/spectre/v10_0_2/lpmos/models/cap/cmm5t.scs
Reading file:  /opt/pdk/xfab/XKIT/xh018/cadence/v10_0/spectre/v10_0_2/lpmos/models/cap/cmm6t.scs
Reading file:  /opt/pdk/xfab/XKIT/xh018/cadence/v10_0/spectre/v10_0_2/lpmos/models/cap/cdmm4.scs
Reading file:  /opt/pdk/xfab/XKIT/xh018/cadence/v10_0/spectre/v10_0_2/lpmos/models/cap/cdmm4t.scs
Reading file:  /opt/pdk/xfab/XKIT/xh018/cadence/v10_0/spectre/v10_0_2/lpmos/models/cap/ctmm5.scs
Reading file:  /opt/pdk/xfab/XKIT/xh018/cadence/v10_0/spectre/v10_0_2/lpmos/models/cap/ctmm5t.scs
Reading file:  /opt/pdk/xfab/XKIT/xh018/cadence/v10_0/spectre/v10_0_2/lpmos/models/cap/cmmh3.scs
Reading file:  /opt/pdk/xfab/XKIT/xh018/cadence/v10_0/spectre/v10_0_2/lpmos/models/cap/cmmh4t.scs
Reading file:  /opt/pdk/xfab/XKIT/xh018/cadence/v10_0/spectre/v10_0_2/lpmos/models/cap/cmmh4.scs
Reading file:  /opt/pdk/xfab/XKIT/xh018/cadence/v10_0/spectre/v10_0_2/lpmos/models/cap/cmmh5t.scs
Reading file:  /opt/pdk/xfab/XKIT/xh018/cadence/v10_0/spectre/v10_0_2/lpmos/models/cap/cmmh6t.scs
Reading file:  /opt/pdk/xfab/XKIT/xh018/cadence/v10_0/spectre/v10_0_2/lpmos/models/cap/cdmmh4.scs
Reading file:  /opt/pdk/xfab/XKIT/xh018/cadence/v10_0/spectre/v10_0_2/lpmos/models/cap/cdmmh4t.scs
Reading file:  /opt/pdk/xfab/XKIT/xh018/cadence/v10_0/spectre/v10_0_2/lpmos/models/cap/ctmmh5.scs
Reading file:  /opt/pdk/xfab/XKIT/xh018/cadence/v10_0/spectre/v10_0_2/lpmos/models/cap/ctmmh5t.scs
Reading file:  /opt/pdk/xfab/XKIT/xh018/cadence/v10_0/spectre/v10_0_2/lpmos/models/cap/mosvc.scs
Reading file:  /opt/pdk/xfab/XKIT/xh018/cadence/v10_0/spectre/v10_0_2/lpmos/models/cap/mosvc_pmos.scs
Reading file:  /opt/pdk/xfab/XKIT/xh018/cadence/v10_0/spectre/v10_0_2/lpmos/models/cap/mosvci.scs
Reading file:  /opt/pdk/xfab/XKIT/xh018/cadence/v10_0/spectre/v10_0_2/lpmos/models/cap/mosvci_nmos.scs
Reading file:  /opt/pdk/xfab/XKIT/xh018/cadence/v10_0/spectre/v10_0_2/lpmos/models/cap/mosvci_m.scs
Reading file:  /opt/pdk/xfab/XKIT/xh018/cadence/v10_0/spectre/v10_0_2/lpmos/models/cap/mosvc3.scs
Reading file:  /opt/pdk/xfab/XKIT/xh018/cadence/v10_0/spectre/v10_0_2/lpmos/models/cap/mosvc3_pmos.scs
Reading file:  /opt/pdk/xfab/XKIT/xh018/cadence/v10_0/spectre/v10_0_2/lpmos/models/cap/mosvc3i.scs
Reading file:  /opt/pdk/xfab/XKIT/xh018/cadence/v10_0/spectre/v10_0_2/lpmos/models/cap/mosvc3i_nmos.scs
Reading file:  /opt/pdk/xfab/XKIT/xh018/cadence/v10_0/spectre/v10_0_2/lpmos/models/cap/mosvc3i_m.scs
Reading file:  /opt/pdk/xfab/XKIT/xh018/cadence/v10_0/spectre/v10_0_2/lpmos/models/cap/cpod.scs
Reading file:  /opt/pdk/xfab/XKIT/xh018/cadence/v10_0/spectre/v10_0_2/lpmos/models/cap/cpod_i.scs
Reading file:  /opt/pdk/xfab/XKIT/xh018/cadence/v10_0/spectre/v10_0_2/lpmos/models/cap/cpodhv.scs
Reading file:  /opt/pdk/xfab/XKIT/xh018/cadence/v10_0/spectre/v10_0_2/lpmos/models/cap/cpodhv_i.scs
Reading file:  /opt/pdk/xfab/XKIT/xh018/cadence/v10_0/spectre/v10_0_2/lpmos/models/cap/cp1sub.scs
Reading file:  /opt/pdk/xfab/XKIT/xh018/cadence/v10_0/spectre/v10_0_2/lpmos/models/cap/cp1suba.scs
Reading file:  /opt/pdk/xfab/XKIT/xh018/cadence/v10_0/spectre/v10_0_2/lpmos/models/cap/cp1subp.scs
Reading file:  /opt/pdk/xfab/XKIT/xh018/cadence/v10_0/spectre/v10_0_2/lpmos/models/cap/tag_25v.scs
Reading file:  /opt/pdk/xfab/XKIT/xh018/cadence/v10_0/spectre/v10_0_2/lpmos/models/cap/tag_60v.scs
Reading file:  /opt/pdk/xfab/XKIT/xh018/cadence/v10_0/spectre/v10_0_2/lpmos/dio.scs
Reading file:  /opt/pdk/xfab/XKIT/xh018/cadence/v10_0/spectre/v10_0_2/lpmos/models/dio/tm_dio.scs
Reading file:  /opt/pdk/xfab/XKIT/xh018/cadence/v10_0/spectre/v10_0_2/lpmos/models/dio/dn.scs
Reading file:  /opt/pdk/xfab/XKIT/xh018/cadence/v10_0/spectre/v10_0_2/lpmos/models/dio/dp.scs
Reading file:  /opt/pdk/xfab/XKIT/xh018/cadence/v10_0/spectre/v10_0_2/lpmos/models/dio/dnw.scs
Reading file:  /opt/pdk/xfab/XKIT/xh018/cadence/v10_0/spectre/v10_0_2/lpmos/models/dio/dn3.scs
Reading file:  /opt/pdk/xfab/XKIT/xh018/cadence/v10_0/spectre/v10_0_2/lpmos/models/dio/dnn3.scs
Reading file:  /opt/pdk/xfab/XKIT/xh018/cadence/v10_0/spectre/v10_0_2/lpmos/models/dio/dp3.scs
Reading file:  /opt/pdk/xfab/XKIT/xh018/cadence/v10_0/spectre/v10_0_2/lpmos/models/dio/dnw3.scs
Reading file:  /opt/pdk/xfab/XKIT/xh018/cadence/v10_0/spectre/v10_0_2/lpmos/models/dio/ddnwmv.scs
Reading file:  /opt/pdk/xfab/XKIT/xh018/cadence/v10_0/spectre/v10_0_2/lpmos/models/dio/dpdnwmv.scs
Reading file:  /opt/pdk/xfab/XKIT/xh018/cadence/v10_0/spectre/v10_0_2/lpmos/models/dio/dipdnwmv.scs
Reading file:  /opt/pdk/xfab/XKIT/xh018/cadence/v10_0/spectre/v10_0_2/lpmos/models/dio/ddnw.scs
Reading file:  /opt/pdk/xfab/XKIT/xh018/cadence/v10_0/spectre/v10_0_2/lpmos/models/dio/ddnwa.scs
Reading file:  /opt/pdk/xfab/XKIT/xh018/cadence/v10_0/spectre/v10_0_2/lpmos/models/dio/dpdnw.scs
Reading file:  /opt/pdk/xfab/XKIT/xh018/cadence/v10_0/spectre/v10_0_2/lpmos/models/dio/dipdnw.scs
Reading file:  /opt/pdk/xfab/XKIT/xh018/cadence/v10_0/spectre/v10_0_2/lpmos/models/dio/dnhpw.scs
Reading file:  /opt/pdk/xfab/XKIT/xh018/cadence/v10_0/spectre/v10_0_2/lpmos/models/dio/dnhpwa.scs
Reading file:  /opt/pdk/xfab/XKIT/xh018/cadence/v10_0/spectre/v10_0_2/lpmos/models/dio/dphnw.scs
Reading file:  /opt/pdk/xfab/XKIT/xh018/cadence/v10_0/spectre/v10_0_2/lpmos/models/dio/dphnwa.scs
Reading file:  /opt/pdk/xfab/XKIT/xh018/cadence/v10_0/spectre/v10_0_2/lpmos/models/dio/dhpw.scs
Reading file:  /opt/pdk/xfab/XKIT/xh018/cadence/v10_0/spectre/v10_0_2/lpmos/models/dio/dhnw.scs
Reading file:  /opt/pdk/xfab/XKIT/xh018/cadence/v10_0/spectre/v10_0_2/lpmos/models/dio/dndf.scs
Reading file:  /opt/pdk/xfab/XKIT/xh018/cadence/v10_0/spectre/v10_0_2/lpmos/models/dio/dpdwhn.scs
Reading file:  /opt/pdk/xfab/XKIT/xh018/cadence/v10_0/spectre/v10_0_2/lpmos/models/dio/dwhn.scs
Reading file:  /opt/pdk/xfab/XKIT/xh018/cadence/v10_0/spectre/v10_0_2/lpmos/models/dio/dpwhn.scs
Reading file:  /opt/pdk/xfab/XKIT/xh018/cadence/v10_0/spectre/v10_0_2/lpmos/models/dio/dpndf.scs
Reading file:  /opt/pdk/xfab/XKIT/xh018/cadence/v10_0/spectre/v10_0_2/lpmos/models/dio/dpdddnw.scs
Reading file:  /opt/pdk/xfab/XKIT/xh018/cadence/v10_0/spectre/v10_0_2/lpmos/models/dio/ddpldnw.scs
Reading file:  /opt/pdk/xfab/XKIT/xh018/cadence/v10_0/spectre/v10_0_2/lpmos/models/dio/dn3dpl.scs
Reading file:  /opt/pdk/xfab/XKIT/xh018/cadence/v10_0/spectre/v10_0_2/lpmos/models/dio/dbn.scs
Reading file:  /opt/pdk/xfab/XKIT/xh018/cadence/v10_0/spectre/v10_0_2/lpmos/models/dio/dpol.scs
Reading file:  /opt/pdk/xfab/XKIT/xh018/cadence/v10_0/spectre/v10_0_2/lpmos/models/dio/dnpdd_scr.scs
Reading file:  /opt/pdk/xfab/XKIT/xh018/cadence/v10_0/spectre/v10_0_2/lpmos/models/dio/dpdd_scr.scs
Reading file:  /opt/pdk/xfab/XKIT/xh018/cadence/v10_0/spectre/v10_0_2/lpmos/models/dio/dsb.scs
Reading file:  /opt/pdk/xfab/XKIT/xh018/cadence/v10_0/spectre/v10_0_2/lpmos/models/dio/dsba.scs
Reading file:  /opt/pdk/xfab/XKIT/xh018/cadence/v10_0/spectre/v10_0_2/lpmos/models/dio/dsba_qp1.scs
Reading file:  /opt/pdk/xfab/XKIT/xh018/cadence/v10_0/spectre/v10_0_2/lpmos/models/dio/dnp20.scs
Reading file:  /opt/pdk/xfab/XKIT/xh018/cadence/v10_0/spectre/v10_0_2/lpmos/models/dio/dpp20.scs
Reading file:  /opt/pdk/xfab/XKIT/xh018/cadence/v10_0/spectre/v10_0_2/lpmos/models/dio/dn3sci.scs
Reading file:  /opt/pdk/xfab/XKIT/xh018/cadence/v10_0/spectre/v10_0_2/lpmos/models/dio/dscidnwmv.scs
Reading file:  /opt/pdk/xfab/XKIT/xh018/cadence/v10_0/spectre/v10_0_2/lpmos/mos.scs
Reading file:  /opt/pdk/xfab/XKIT/xh018/cadence/v10_0/spectre/v10_0_2/lpmos/models/mos/tm_mos.scs
Reading file:  /opt/pdk/xfab/XKIT/xh018/cadence/v10_0/spectre/v10_0_2/lpmos/models/mos/ne.scs
Reading file:  /opt/pdk/xfab/XKIT/xh018/cadence/v10_0/spectre/v10_0_2/lpmos/models/mos/nei.scs
Reading file:  /opt/pdk/xfab/XKIT/xh018/cadence/v10_0/spectre/v10_0_2/lpmos/models/mos/nei_6.scs
Reading file:  /opt/pdk/xfab/XKIT/xh018/cadence/v10_0/spectre/v10_0_2/lpmos/models/mos/nei_m_6.scs
Reading file:  /opt/pdk/xfab/XKIT/xh018/cadence/v10_0/spectre/v10_0_2/lpmos/models/mos/nei_a_6.scs
Reading file:  /opt/pdk/xfab/XKIT/xh018/cadence/v10_0/spectre/v10_0_2/lpmos/models/mos/pe.scs
Reading file:  /opt/pdk/xfab/XKIT/xh018/cadence/v10_0/spectre/v10_0_2/lpmos/models/mos/pe_5.scs
Reading file:  /opt/pdk/xfab/XKIT/xh018/cadence/v10_0/spectre/v10_0_2/lpmos/models/mos/pei.scs
Reading file:  /opt/pdk/xfab/XKIT/xh018/cadence/v10_0/spectre/v10_0_2/lpmos/models/mos/pei_5.scs
Reading file:  /opt/pdk/xfab/XKIT/xh018/cadence/v10_0/spectre/v10_0_2/lpmos/models/mos/pei_m_5.scs
Reading file:  /opt/pdk/xfab/XKIT/xh018/cadence/v10_0/spectre/v10_0_2/lpmos/models/mos/pei_a_5.scs
Reading file:  /opt/pdk/xfab/XKIT/xh018/cadence/v10_0/spectre/v10_0_2/lpmos/models/mos/nel.scs
Reading file:  /opt/pdk/xfab/XKIT/xh018/cadence/v10_0/spectre/v10_0_2/lpmos/models/mos/neli.scs
Reading file:  /opt/pdk/xfab/XKIT/xh018/cadence/v10_0/spectre/v10_0_2/lpmos/models/mos/neli_6.scs
Reading file:  /opt/pdk/xfab/XKIT/xh018/cadence/v10_0/spectre/v10_0_2/lpmos/models/mos/neli_m_6.scs
Reading file:  /opt/pdk/xfab/XKIT/xh018/cadence/v10_0/spectre/v10_0_2/lpmos/models/mos/pel.scs
Reading file:  /opt/pdk/xfab/XKIT/xh018/cadence/v10_0/spectre/v10_0_2/lpmos/models/mos/pel_5.scs
Reading file:  /opt/pdk/xfab/XKIT/xh018/cadence/v10_0/spectre/v10_0_2/lpmos/models/mos/peli.scs
Reading file:  /opt/pdk/xfab/XKIT/xh018/cadence/v10_0/spectre/v10_0_2/lpmos/models/mos/peli_5.scs
Reading file:  /opt/pdk/xfab/XKIT/xh018/cadence/v10_0/spectre/v10_0_2/lpmos/models/mos/peli_m_5.scs
Reading file:  /opt/pdk/xfab/XKIT/xh018/cadence/v10_0/spectre/v10_0_2/lpmos/models/mos/nn3.scs
Reading file:  /opt/pdk/xfab/XKIT/xh018/cadence/v10_0/spectre/v10_0_2/lpmos/models/mos/ne3.scs
Reading file:  /opt/pdk/xfab/XKIT/xh018/cadence/v10_0/spectre/v10_0_2/lpmos/models/mos/ne3i.scs
Reading file:  /opt/pdk/xfab/XKIT/xh018/cadence/v10_0/spectre/v10_0_2/lpmos/models/mos/ne3i_6.scs
Reading file:  /opt/pdk/xfab/XKIT/xh018/cadence/v10_0/spectre/v10_0_2/lpmos/models/mos/ne3i_m_6.scs
Reading file:  /opt/pdk/xfab/XKIT/xh018/cadence/v10_0/spectre/v10_0_2/lpmos/models/mos/ne3i_a_6.scs
Reading file:  /opt/pdk/xfab/XKIT/xh018/cadence/v10_0/spectre/v10_0_2/lpmos/models/mos/pe3.scs
Reading file:  /opt/pdk/xfab/XKIT/xh018/cadence/v10_0/spectre/v10_0_2/lpmos/models/mos/pe3_5.scs
Reading file:  /opt/pdk/xfab/XKIT/xh018/cadence/v10_0/spectre/v10_0_2/lpmos/models/mos/pe3i.scs
Reading file:  /opt/pdk/xfab/XKIT/xh018/cadence/v10_0/spectre/v10_0_2/lpmos/models/mos/pe3i_5.scs
Reading file:  /opt/pdk/xfab/XKIT/xh018/cadence/v10_0/spectre/v10_0_2/lpmos/models/mos/pe3i_m_5.scs
Reading file:  /opt/pdk/xfab/XKIT/xh018/cadence/v10_0/spectre/v10_0_2/lpmos/models/mos/pe3i_a_5.scs
Reading file:  /opt/pdk/xfab/XKIT/xh018/cadence/v10_0/spectre/v10_0_2/lpmos/models/mos/pe3ln.scs
Reading file:  /opt/pdk/xfab/XKIT/xh018/cadence/v10_0/spectre/v10_0_2/lpmos/models/mos/pe3ln_5.scs
Reading file:  /opt/pdk/xfab/XKIT/xh018/cadence/v10_0/spectre/v10_0_2/lpmos/models/mos/pe3lni.scs
Reading file:  /opt/pdk/xfab/XKIT/xh018/cadence/v10_0/spectre/v10_0_2/lpmos/models/mos/pe3lni_5.scs
Reading file:  /opt/pdk/xfab/XKIT/xh018/cadence/v10_0/spectre/v10_0_2/lpmos/models/mos/pe3lni_m_5.scs
Reading file:  /opt/pdk/xfab/XKIT/xh018/cadence/v10_0/spectre/v10_0_2/lpmos/models/mos/nd3.scs
Reading file:  /opt/pdk/xfab/XKIT/xh018/cadence/v10_0/spectre/v10_0_2/lpmos/models/mos/nd3_mos1.scs
Reading file:  /opt/pdk/xfab/XKIT/xh018/cadence/v10_0/spectre/v10_0_2/lpmos/models/mos/nd3_mos2.scs
Reading file:  /opt/pdk/xfab/XKIT/xh018/cadence/v10_0/spectre/v10_0_2/lpmos/models/mos/nd3i.scs
Reading file:  /opt/pdk/xfab/XKIT/xh018/cadence/v10_0/spectre/v10_0_2/lpmos/models/mos/nd3i_mos1.scs
Reading file:  /opt/pdk/xfab/XKIT/xh018/cadence/v10_0/spectre/v10_0_2/lpmos/models/mos/nd3i_mos2.scs
Reading file:  /opt/pdk/xfab/XKIT/xh018/cadence/v10_0/spectre/v10_0_2/lpmos/models/mos/nd3i_6.scs
Reading file:  /opt/pdk/xfab/XKIT/xh018/cadence/v10_0/spectre/v10_0_2/lpmos/models/mos/nd3i_m_6.scs
Reading file:  /opt/pdk/xfab/XKIT/xh018/cadence/v10_0/spectre/v10_0_2/lpmos/models/mos/nelna.scs
Reading file:  /opt/pdk/xfab/XKIT/xh018/cadence/v10_0/spectre/v10_0_2/lpmos/models/mos/nelnai.scs
Reading file:  /opt/pdk/xfab/XKIT/xh018/cadence/v10_0/spectre/v10_0_2/lpmos/models/mos/nelnai_6.scs
Reading file:  /opt/pdk/xfab/XKIT/xh018/cadence/v10_0/spectre/v10_0_2/lpmos/models/mos/nelnai_m_6.scs
Reading file:  /opt/pdk/xfab/XKIT/xh018/cadence/v10_0/spectre/v10_0_2/lpmos/models/mos/ne3lna.scs
Reading file:  /opt/pdk/xfab/XKIT/xh018/cadence/v10_0/spectre/v10_0_2/lpmos/models/mos/ne3lnai.scs
Reading file:  /opt/pdk/xfab/XKIT/xh018/cadence/v10_0/spectre/v10_0_2/lpmos/models/mos/ne3lnai_6.scs
Reading file:  /opt/pdk/xfab/XKIT/xh018/cadence/v10_0/spectre/v10_0_2/lpmos/models/mos/ne3lnai_m_6.scs
Reading file:  /opt/pdk/xfab/XKIT/xh018/cadence/v10_0/spectre/v10_0_2/lpmos/models/mos/pe3lna.scs
Reading file:  /opt/pdk/xfab/XKIT/xh018/cadence/v10_0/spectre/v10_0_2/lpmos/models/mos/pe3lna_5.scs
Reading file:  /opt/pdk/xfab/XKIT/xh018/cadence/v10_0/spectre/v10_0_2/lpmos/models/mos/pe3lnai.scs
Reading file:  /opt/pdk/xfab/XKIT/xh018/cadence/v10_0/spectre/v10_0_2/lpmos/models/mos/pe3lnai_5.scs
Reading file:  /opt/pdk/xfab/XKIT/xh018/cadence/v10_0/spectre/v10_0_2/lpmos/models/mos/pe3lnai_m_5.scs
Reading file:  /opt/pdk/xfab/XKIT/xh018/cadence/v10_0/spectre/v10_0_2/lpmos/models/mos/nmma.scs
Reading file:  /opt/pdk/xfab/XKIT/xh018/cadence/v10_0/spectre/v10_0_2/lpmos/models/mos/jf_nmma.scs
Reading file:  /opt/pdk/xfab/XKIT/xh018/cadence/v10_0/spectre/v10_0_2/lpmos/models/mos/nmma_bjt.scs
Reading file:  /opt/pdk/xfab/XKIT/xh018/cadence/v10_0/spectre/v10_0_2/lpmos/models/mos/pmma.scs
Reading file:  /opt/pdk/xfab/XKIT/xh018/cadence/v10_0/spectre/v10_0_2/lpmos/models/mos/jf_pmma.scs
Reading file:  /opt/pdk/xfab/XKIT/xh018/cadence/v10_0/spectre/v10_0_2/lpmos/models/mos/pmma_bjt.scs
Reading file:  /opt/pdk/xfab/XKIT/xh018/cadence/v10_0/spectre/v10_0_2/lpmos/models/mos/nedi.scs
Reading file:  /opt/pdk/xfab/XKIT/xh018/cadence/v10_0/spectre/v10_0_2/lpmos/models/mos/nedi_bjt.scs
Reading file:  /opt/pdk/xfab/XKIT/xh018/cadence/v10_0/spectre/v10_0_2/lpmos/models/mos/nedia.scs
Reading file:  /opt/pdk/xfab/XKIT/xh018/cadence/v10_0/spectre/v10_0_2/lpmos/models/mos/nedia_bjt.scs
Reading file:  /opt/pdk/xfab/XKIT/xh018/cadence/v10_0/spectre/v10_0_2/lpmos/models/mos/ped2.scs
Reading file:  /opt/pdk/xfab/XKIT/xh018/cadence/v10_0/spectre/v10_0_2/lpmos/models/mos/ped2_bjt.scs
Reading file:  /opt/pdk/xfab/XKIT/xh018/cadence/v10_0/spectre/v10_0_2/lpmos/models/mos/ped.scs
Reading file:  /opt/pdk/xfab/XKIT/xh018/cadence/v10_0/spectre/v10_0_2/lpmos/models/mos/ped_bjt.scs
Reading file:  /opt/pdk/xfab/XKIT/xh018/cadence/v10_0/spectre/v10_0_2/lpmos/models/mos/nhv.scs
Reading file:  /opt/pdk/xfab/XKIT/xh018/cadence/v10_0/spectre/v10_0_2/lpmos/models/mos/nhv_mos2.scs
Reading file:  /opt/pdk/xfab/XKIT/xh018/cadence/v10_0/spectre/v10_0_2/lpmos/models/mos/nhv_bjt.scs
Reading file:  /opt/pdk/xfab/XKIT/xh018/cadence/v10_0/spectre/v10_0_2/lpmos/models/mos/nhhv.scs
Reading file:  /opt/pdk/xfab/XKIT/xh018/cadence/v10_0/spectre/v10_0_2/lpmos/models/mos/nhhv_mos2.scs
Reading file:  /opt/pdk/xfab/XKIT/xh018/cadence/v10_0/spectre/v10_0_2/lpmos/models/mos/nhhv_bjt.scs
Reading file:  /opt/pdk/xfab/XKIT/xh018/cadence/v10_0/spectre/v10_0_2/lpmos/models/mos/nmmc.scs
Reading file:  /opt/pdk/xfab/XKIT/xh018/cadence/v10_0/spectre/v10_0_2/lpmos/models/mos/nmmc_mos2.scs
Reading file:  /opt/pdk/xfab/XKIT/xh018/cadence/v10_0/spectre/v10_0_2/lpmos/models/mos/nmmc_bjt.scs
Reading file:  /opt/pdk/xfab/XKIT/xh018/cadence/v10_0/spectre/v10_0_2/lpmos/models/mos/nmmd.scs
Reading file:  /opt/pdk/xfab/XKIT/xh018/cadence/v10_0/spectre/v10_0_2/lpmos/models/mos/nmmd_mos2.scs
Reading file:  /opt/pdk/xfab/XKIT/xh018/cadence/v10_0/spectre/v10_0_2/lpmos/models/mos/nmmd_bjt.scs
Reading file:  /opt/pdk/xfab/XKIT/xh018/cadence/v10_0/spectre/v10_0_2/lpmos/models/mos/nmc.scs
Reading file:  /opt/pdk/xfab/XKIT/xh018/cadence/v10_0/spectre/v10_0_2/lpmos/models/mos/nmc_mos2.scs
Reading file:  /opt/pdk/xfab/XKIT/xh018/cadence/v10_0/spectre/v10_0_2/lpmos/models/mos/nmc_bjt.scs
Reading file:  /opt/pdk/xfab/XKIT/xh018/cadence/v10_0/spectre/v10_0_2/lpmos/models/mos/nma.scs
Reading file:  /opt/pdk/xfab/XKIT/xh018/cadence/v10_0/spectre/v10_0_2/lpmos/models/mos/nma_bjt.scs
Reading file:  /opt/pdk/xfab/XKIT/xh018/cadence/v10_0/spectre/v10_0_2/lpmos/models/mos/phv.scs
Reading file:  /opt/pdk/xfab/XKIT/xh018/cadence/v10_0/spectre/v10_0_2/lpmos/models/mos/phv_mos2.scs
Reading file:  /opt/pdk/xfab/XKIT/xh018/cadence/v10_0/spectre/v10_0_2/lpmos/models/mos/phv_bjt.scs
Reading file:  /opt/pdk/xfab/XKIT/xh018/cadence/v10_0/spectre/v10_0_2/lpmos/models/mos/phhv.scs
Reading file:  /opt/pdk/xfab/XKIT/xh018/cadence/v10_0/spectre/v10_0_2/lpmos/models/mos/phhv_mos2.scs
Reading file:  /opt/pdk/xfab/XKIT/xh018/cadence/v10_0/spectre/v10_0_2/lpmos/models/mos/phhv_bjt.scs
Reading file:  /opt/pdk/xfab/XKIT/xh018/cadence/v10_0/spectre/v10_0_2/lpmos/models/mos/pmc.scs
Reading file:  /opt/pdk/xfab/XKIT/xh018/cadence/v10_0/spectre/v10_0_2/lpmos/models/mos/pmc_mos2.scs
Reading file:  /opt/pdk/xfab/XKIT/xh018/cadence/v10_0/spectre/v10_0_2/lpmos/models/mos/pmc_bjt.scs
Reading file:  /opt/pdk/xfab/XKIT/xh018/cadence/v10_0/spectre/v10_0_2/lpmos/models/mos/pmmc.scs
Reading file:  /opt/pdk/xfab/XKIT/xh018/cadence/v10_0/spectre/v10_0_2/lpmos/models/mos/pmmc_mos2.scs
Reading file:  /opt/pdk/xfab/XKIT/xh018/cadence/v10_0/spectre/v10_0_2/lpmos/models/mos/pmmc_bjt.scs
Reading file:  /opt/pdk/xfab/XKIT/xh018/cadence/v10_0/spectre/v10_0_2/lpmos/models/mos/pma.scs
Reading file:  /opt/pdk/xfab/XKIT/xh018/cadence/v10_0/spectre/v10_0_2/lpmos/models/mos/pma_bjt.scs
Reading file:  /opt/pdk/xfab/XKIT/xh018/cadence/v10_0/spectre/v10_0_2/lpmos/models/mos/pmb.scs
Reading file:  /opt/pdk/xfab/XKIT/xh018/cadence/v10_0/spectre/v10_0_2/lpmos/models/mos/nesvt.scs
Reading file:  /opt/pdk/xfab/XKIT/xh018/cadence/v10_0/spectre/v10_0_2/lpmos/models/mos/nesvti.scs
Reading file:  /opt/pdk/xfab/XKIT/xh018/cadence/v10_0/spectre/v10_0_2/lpmos/models/mos/nesvti_6.scs
Reading file:  /opt/pdk/xfab/XKIT/xh018/cadence/v10_0/spectre/v10_0_2/lpmos/models/mos/nesvti_m_6.scs
Reading file:  /opt/pdk/xfab/XKIT/xh018/cadence/v10_0/spectre/v10_0_2/lpmos/models/mos/pesvt.scs
Reading file:  /opt/pdk/xfab/XKIT/xh018/cadence/v10_0/spectre/v10_0_2/lpmos/models/mos/pesvt_5.scs
Reading file:  /opt/pdk/xfab/XKIT/xh018/cadence/v10_0/spectre/v10_0_2/lpmos/models/mos/pesvti.scs
Reading file:  /opt/pdk/xfab/XKIT/xh018/cadence/v10_0/spectre/v10_0_2/lpmos/models/mos/pesvti_5.scs
Reading file:  /opt/pdk/xfab/XKIT/xh018/cadence/v10_0/spectre/v10_0_2/lpmos/models/mos/pesvti_m_5.scs
Reading file:  /opt/pdk/xfab/XKIT/xh018/cadence/v10_0/spectre/v10_0_2/lpmos/models/mos/nhvd.scs
Reading file:  /opt/pdk/xfab/XKIT/xh018/cadence/v10_0/spectre/v10_0_2/lpmos/models/mos/nhvd_bjt.scs
Reading file:  /opt/pdk/xfab/XKIT/xh018/cadence/v10_0/spectre/v10_0_2/lpmos/models/mos/nhhvd.scs
Reading file:  /opt/pdk/xfab/XKIT/xh018/cadence/v10_0/spectre/v10_0_2/lpmos/models/mos/nhhvd_bjt.scs
Reading file:  /opt/pdk/xfab/XKIT/xh018/cadence/v10_0/spectre/v10_0_2/lpmos/photo.scs
Reading file:  /opt/pdk/xfab/XKIT/xh018/cadence/v10_0/spectre/v10_0_2/lpmos/models/photo/tm_pho.scs
Reading file:  /opt/pdk/xfab/XKIT/xh018/cadence/v10_0/spectre/v10_0_2/lpmos/models/photo/dphoa.scs
Reading file:  /opt/pdk/xfab/XKIT/xh018/cadence/v10_0/spectre/v10_0_2/lpmos/models/photo/dpho.va
Reading link:  /opt/tools/cadence/installs/SPECTRE241/tools.lnx86/spectre/etc/ahdl/constants.h
Reading file:  /opt/tools/cadence/installs/SPECTRE241/tools.lnx86/spectre/etc/ahdl/constants.vams
Reading link:  /opt/tools/cadence/installs/SPECTRE241/tools.lnx86/spectre/etc/ahdl/discipline.h
Reading file:  /opt/tools/cadence/installs/SPECTRE241/tools.lnx86/spectre/etc/ahdl/disciplines.vams
Reading file:  /opt/pdk/xfab/XKIT/xh018/cadence/v10_0/spectre/v10_0_2/lpmos/models/photo/dphob.scs
Reading file:  /opt/pdk/xfab/XKIT/xh018/cadence/v10_0/spectre/v10_0_2/lpmos/models/photo/dphoc.scs
Reading file:  /opt/pdk/xfab/XKIT/xh018/cadence/v10_0/spectre/v10_0_2/lpmos/models/photo/iphoto_uv.va
Reading file:  /opt/pdk/xfab/XKIT/xh018/cadence/v10_0/spectre/v10_0_2/lpmos/models/photo/dphoc_cat.scs
Reading file:  /opt/pdk/xfab/XKIT/xh018/cadence/v10_0/spectre/v10_0_2/lpmos/models/photo/dphoc0.scs
Reading file:  /opt/pdk/xfab/XKIT/xh018/cadence/v10_0/spectre/v10_0_2/lpmos/models/photo/dphoc0_cat.scs
Reading file:  /opt/pdk/xfab/XKIT/xh018/cadence/v10_0/spectre/v10_0_2/lpmos/models/photo/dphocfp.scs
Reading file:  /opt/pdk/xfab/XKIT/xh018/cadence/v10_0/spectre/v10_0_2/lpmos/models/photo/dphocfp_cat.scs
Reading file:  /opt/pdk/xfab/XKIT/xh018/cadence/v10_0/spectre/v10_0_2/lpmos/models/photo/dphod.scs
Reading file:  /opt/pdk/xfab/XKIT/xh018/cadence/v10_0/spectre/v10_0_2/lpmos/models/photo/dphod_an1.scs
Reading file:  /opt/pdk/xfab/XKIT/xh018/cadence/v10_0/spectre/v10_0_2/lpmos/models/photo/dphod_an2.scs
Reading file:  /opt/pdk/xfab/XKIT/xh018/cadence/v10_0/spectre/v10_0_2/lpmos/models/photo/dphod0.scs
Reading file:  /opt/pdk/xfab/XKIT/xh018/cadence/v10_0/spectre/v10_0_2/lpmos/models/photo/dphod0_an1.scs
Reading file:  /opt/pdk/xfab/XKIT/xh018/cadence/v10_0/spectre/v10_0_2/lpmos/models/photo/dphod0_an2.scs
Reading file:  /opt/pdk/xfab/XKIT/xh018/cadence/v10_0/spectre/v10_0_2/lpmos/models/photo/dphodfp.scs
Reading file:  /opt/pdk/xfab/XKIT/xh018/cadence/v10_0/spectre/v10_0_2/lpmos/models/photo/dphodfp_an1.scs
Reading file:  /opt/pdk/xfab/XKIT/xh018/cadence/v10_0/spectre/v10_0_2/lpmos/models/photo/dphodfp_an2.scs
Reading file:  /opt/pdk/xfab/XKIT/xh018/cadence/v10_0/spectre/v10_0_2/lpmos/models/photo/dspada0.scs
Reading file:  /opt/pdk/xfab/XKIT/xh018/cadence/v10_0/spectre/v10_0_2/lpmos/models/photo/ispad.va
Reading file:  /opt/pdk/xfab/XKIT/xh018/cadence/v10_0/spectre/v10_0_2/lpmos/models/photo/dapb.scs
Reading file:  /opt/pdk/xfab/XKIT/xh018/cadence/v10_0/spectre/v10_0_2/lpmos/models/photo/iphoto_apd_trig.va
Reading file:  /opt/pdk/xfab/XKIT/xh018/cadence/v10_0/spectre/v10_0_2/lpmos/models/photo/dapb_jun.scs
Reading file:  /opt/pdk/xfab/XKIT/xh018/cadence/v10_0/spectre/v10_0_2/lpmos/models/photo/dapb_trig.scs
Reading file:  /opt/pdk/xfab/XKIT/xh018/cadence/v10_0/spectre/v10_0_2/lpmos/models/photo/dapb0.scs
Reading file:  /opt/pdk/xfab/XKIT/xh018/cadence/v10_0/spectre/v10_0_2/lpmos/models/photo/dapb0_jun.scs
Reading file:  /opt/pdk/xfab/XKIT/xh018/cadence/v10_0/spectre/v10_0_2/lpmos/models/photo/dspb.scs
Reading file:  /opt/pdk/xfab/XKIT/xh018/cadence/v10_0/spectre/v10_0_2/lpmos/models/photo/ispad_trig.va
Reading file:  /opt/pdk/xfab/XKIT/xh018/cadence/v10_0/spectre/v10_0_2/lpmos/models/photo/dspb_jun.scs
Reading file:  /opt/pdk/xfab/XKIT/xh018/cadence/v10_0/spectre/v10_0_2/lpmos/models/photo/dspb_trig.scs
Reading file:  /opt/pdk/xfab/XKIT/xh018/cadence/v10_0/spectre/v10_0_2/lpmos/models/photo/dspb0.scs
Reading file:  /opt/pdk/xfab/XKIT/xh018/cadence/v10_0/spectre/v10_0_2/lpmos/models/photo/dspb0_jun.scs
Reading file:  /opt/pdk/xfab/XKIT/xh018/cadence/v10_0/spectre/v10_0_2/lpmos/models/photo/dspbfep.scs
Reading file:  /opt/pdk/xfab/XKIT/xh018/cadence/v10_0/spectre/v10_0_2/lpmos/models/photo/dapda.scs
Reading file:  /opt/pdk/xfab/XKIT/xh018/cadence/v10_0/spectre/v10_0_2/lpmos/models/photo/iphoto_apd.va
Reading file:  /opt/pdk/xfab/XKIT/xh018/cadence/v10_0/spectre/v10_0_2/lpmos/models/photo/dapda_cat.scs
Reading file:  /opt/pdk/xfab/XKIT/xh018/cadence/v10_0/spectre/v10_0_2/lpmos/models/photo/dapda0.scs
Reading file:  /opt/pdk/xfab/XKIT/xh018/cadence/v10_0/spectre/v10_0_2/lpmos/models/photo/dspada.scs
Reading file:  /opt/pdk/xfab/XKIT/xh018/cadence/v10_0/spectre/v10_0_2/lpmos/models/photo/dspada_cat.scs
Reading file:  /opt/pdk/xfab/XKIT/xh018/cadence/v10_0/spectre/v10_0_2/lpmos/res.scs
Reading file:  /opt/pdk/xfab/XKIT/xh018/cadence/v10_0/spectre/v10_0_2/lpmos/models/res/tm_res.scs
Reading file:  /opt/pdk/xfab/XKIT/xh018/cadence/v10_0/spectre/v10_0_2/lpmos/models/res/rdn.scs
Reading file:  /opt/pdk/xfab/XKIT/xh018/cadence/v10_0/spectre/v10_0_2/lpmos/models/res/rdn_esd.scs
Reading file:  /opt/pdk/xfab/XKIT/xh018/cadence/v10_0/spectre/v10_0_2/lpmos/models/res/rdp.scs
Reading file:  /opt/pdk/xfab/XKIT/xh018/cadence/v10_0/spectre/v10_0_2/lpmos/models/res/rdp_io.scs
Reading file:  /opt/pdk/xfab/XKIT/xh018/cadence/v10_0/spectre/v10_0_2/lpmos/models/res/rdp_esd.scs
Reading file:  /opt/pdk/xfab/XKIT/xh018/cadence/v10_0/spectre/v10_0_2/lpmos/models/res/rnw.scs
Reading file:  /opt/pdk/xfab/XKIT/xh018/cadence/v10_0/spectre/v10_0_2/lpmos/models/res/rnw_scr.scs
Reading file:  /opt/pdk/xfab/XKIT/xh018/cadence/v10_0/spectre/v10_0_2/lpmos/models/res/rdn3.scs
Reading file:  /opt/pdk/xfab/XKIT/xh018/cadence/v10_0/spectre/v10_0_2/lpmos/models/res/rdp3.scs
Reading file:  /opt/pdk/xfab/XKIT/xh018/cadence/v10_0/spectre/v10_0_2/lpmos/models/res/rnw3.scs
Reading file:  /opt/pdk/xfab/XKIT/xh018/cadence/v10_0/spectre/v10_0_2/lpmos/models/res/rnw3_scr.scs
Reading file:  /opt/pdk/xfab/XKIT/xh018/cadence/v10_0/spectre/v10_0_2/lpmos/models/res/rdnwmv.scs
Reading file:  /opt/pdk/xfab/XKIT/xh018/cadence/v10_0/spectre/v10_0_2/lpmos/models/res/rnp1.scs
Reading file:  /opt/pdk/xfab/XKIT/xh018/cadence/v10_0/spectre/v10_0_2/lpmos/models/res/rnp1_3.scs
Reading file:  /opt/pdk/xfab/XKIT/xh018/cadence/v10_0/spectre/v10_0_2/lpmos/models/res/rpp1.scs
Reading file:  /opt/pdk/xfab/XKIT/xh018/cadence/v10_0/spectre/v10_0_2/lpmos/models/res/rpp1_3.scs
Reading file:  /opt/pdk/xfab/XKIT/xh018/cadence/v10_0/spectre/v10_0_2/lpmos/models/res/rpp1s.scs
Reading file:  /opt/pdk/xfab/XKIT/xh018/cadence/v10_0/spectre/v10_0_2/lpmos/models/res/rpp1s_3.scs
Reading file:  /opt/pdk/xfab/XKIT/xh018/cadence/v10_0/spectre/v10_0_2/lpmos/models/res/rnp1h.scs
Reading file:  /opt/pdk/xfab/XKIT/xh018/cadence/v10_0/spectre/v10_0_2/lpmos/models/res/rnp1h_3.scs
Reading file:  /opt/pdk/xfab/XKIT/xh018/cadence/v10_0/spectre/v10_0_2/lpmos/models/res/rpp1k1.scs
Reading file:  /opt/pdk/xfab/XKIT/xh018/cadence/v10_0/spectre/v10_0_2/lpmos/models/res/rpp1k1_3.scs
Reading file:  /opt/pdk/xfab/XKIT/xh018/cadence/v10_0/spectre/v10_0_2/lpmos/models/res/rctdn.scs
Reading file:  /opt/pdk/xfab/XKIT/xh018/cadence/v10_0/spectre/v10_0_2/lpmos/models/res/rctdp.scs
Reading file:  /opt/pdk/xfab/XKIT/xh018/cadence/v10_0/spectre/v10_0_2/lpmos/models/res/rctp1.scs
Reading file:  /opt/pdk/xfab/XKIT/xh018/cadence/v10_0/spectre/v10_0_2/lpmos/models/res/rsildn.scs
Reading file:  /opt/pdk/xfab/XKIT/xh018/cadence/v10_0/spectre/v10_0_2/lpmos/models/res/rsildp.scs
Reading file:  /opt/pdk/xfab/XKIT/xh018/cadence/v10_0/spectre/v10_0_2/lpmos/models/res/rsilnp1.scs
Reading file:  /opt/pdk/xfab/XKIT/xh018/cadence/v10_0/spectre/v10_0_2/lpmos/models/res/rsilpp1.scs
Reading file:  /opt/pdk/xfab/XKIT/xh018/cadence/v10_0/spectre/v10_0_2/lpmos/models/res/rsbdn.scs
Reading file:  /opt/pdk/xfab/XKIT/xh018/cadence/v10_0/spectre/v10_0_2/lpmos/models/res/rsbdp.scs
Reading file:  /opt/pdk/xfab/XKIT/xh018/cadence/v10_0/spectre/v10_0_2/lpmos/models/res/rsbdn3.scs
Reading file:  /opt/pdk/xfab/XKIT/xh018/cadence/v10_0/spectre/v10_0_2/lpmos/models/res/rsbdp3.scs
Reading file:  /opt/pdk/xfab/XKIT/xh018/cadence/v10_0/spectre/v10_0_2/lpmos/models/res/rsbnp1.scs
Reading file:  /opt/pdk/xfab/XKIT/xh018/cadence/v10_0/spectre/v10_0_2/lpmos/models/res/rsbpp1.scs
Reading file:  /opt/pdk/xfab/XKIT/xh018/cadence/v10_0/spectre/v10_0_2/lpmos/models/res/rsbpp1k1.scs
Reading file:  /opt/pdk/xfab/XKIT/xh018/cadence/v10_0/spectre/v10_0_2/lpmos/models/res/rm1.scs
Reading file:  /opt/pdk/xfab/XKIT/xh018/cadence/v10_0/spectre/v10_0_2/lpmos/models/res/rm2.scs
Reading file:  /opt/pdk/xfab/XKIT/xh018/cadence/v10_0/spectre/v10_0_2/lpmos/models/res/rm3.scs
Reading file:  /opt/pdk/xfab/XKIT/xh018/cadence/v10_0/spectre/v10_0_2/lpmos/models/res/rm4.scs
Reading file:  /opt/pdk/xfab/XKIT/xh018/cadence/v10_0/spectre/v10_0_2/lpmos/models/res/rm5.scs
Reading file:  /opt/pdk/xfab/XKIT/xh018/cadence/v10_0/spectre/v10_0_2/lpmos/models/res/rmtp.scs
Reading file:  /opt/pdk/xfab/XKIT/xh018/cadence/v10_0/spectre/v10_0_2/lpmos/models/res/rmtpl.scs
Reading file:  /opt/pdk/xfab/XKIT/xh018/cadence/v10_0/spectre/v10_0_2/lpmos/models/res/pfuse.scs
Reading file:  /opt/pdk/xfab/XKIT/xh018/cadence/v10_0/spectre/v10_0_2/lpmos/models/res/s_res.scs
Time for NDB Parsing: CPU = 184.895 ms, elapsed = 701.055 ms.
Time accumulated: CPU = 347.291 ms, elapsed = 701.056 ms.
Peak resident memory used = 176 Mbytes.

Time for Elaboration: CPU = 12.771 ms, elapsed = 18.6419 ms.
Time accumulated: CPU = 360.14 ms, elapsed = 719.815 ms.
Peak resident memory used = 186 Mbytes.


Notice from spectre during hierarchy flattening.
    The value 'psf' specified for the 'checklimitdest' option will no longer be supported in future releases. Use 'spectre -h' to see other recommended values for the 'checklimitdest' option.


Time for EDB Visiting: CPU = 769 us, elapsed = 1.01018 ms.
Time accumulated: CPU = 360.999 ms, elapsed = 720.97 ms.
Peak resident memory used = 188 Mbytes.


Notice from spectre during initial setup.
    Multithreading is disabled due to the size of the design being too small.


Netlist title:
        // Point Netlist Generated on: Nov 21 05:54:40 2025


Global user options:
         psfversion = 1.4.0
            vabstol = 1e-06
            iabstol = 1e-12
               temp = 27
               gmin = 1e-12
             rforce = 1
           maxnotes = 5
           maxwarns = 5
             digits = 5
               cols = 80
             pivrel = 0.001
           sensfile = ../psf/sens.output
     checklimitdest = psf
               save = allpub
             reltol = 0.001
               tnom = 27
             scalem = 1
              scale = 1

Scoped user options:

Circuit inventory:
              nodes 4
          capacitor 18    
            isource 2     
           resistor 5     
               vccs 3     

Analysis and control statement inventory:
               info 6     
                 pz 1     

Output statements:
             .probe 0     
           .measure 0     
               save 0     


Notice from spectre during initial setup.
    APS enabled.

Time for parsing: CPU = 1.881 ms, elapsed = 7.06792 ms.
Time accumulated: CPU = 362.952 ms, elapsed = 728.149 ms.
Peak resident memory used = 191 Mbytes.

~~~~~~~~~~~~~~~~~~~~~~
Pre-Simulation Summary
~~~~~~~~~~~~~~~~~~~~~~
   -   (APS) Multi-threading. The recommended number of threads is 1, consider adding +mt=1 on command line.
~~~~~~~~~~~~~~~~~~~~~~

**************************************
PZ Analysis `pz': gm1 = (0 -> 227e-06)
**************************************
Convergence achieved in 2 iterations.
DC simulation time: CPU = 318 us, elapsed = 517.13 us.

Opening the PSF file ../psf/pz.pz ...

0              0.00% 
Convergence achieved in 2 iterations.
DC simulation time: CPU = 63 us, elapsed = 81.0623 us.
                      Poles (Hz)

           Real                       Imaginary                 Qfactor

   1   -1.76351e+03                  0.00000e+00              5.00000e-01 
   2   -1.77384e+04                  0.00000e+00              5.00000e-01 
   3   -9.17114e+05                  0.00000e+00              5.00000e-01 
   4   -2.69631e+07                  0.00000e+00              5.00000e-01 

                      Zeros (Hz)
                      at V(VOUT,0)/I5

           Real                       Imaginary                 Qfactor

   1    1.08150e+02                  0.00000e+00              -5.00000e-01
   2   -3.24971e+04                  0.00000e+00              5.00000e-01 
   3    1.39481e+09                  0.00000e+00              -5.00000e-01

Constant factor =  1.53063e+10

DC gain =  1.54381e+04


4.54e-06       2.00% 
Convergence achieved in 2 iterations.
DC simulation time: CPU = 81 us, elapsed = 90.8375 us.
                      Poles (Hz)

           Real                       Imaginary                 Qfactor

   1   -3.62675e+05              +/- 7.94909e+05              1.20457e+00 
   2   -1.59797e+06                  0.00000e+00              5.00000e-01 
   3   -2.67021e+07                  0.00000e+00              5.00000e-01 

                      Zeros (Hz)
                      at V(VOUT,0)/I5

           Real                       Imaginary                 Qfactor

   1   -2.57081e+06                  0.00000e+00              5.00000e-01 
   2   -3.71893e+06                  0.00000e+00              5.00000e-01 
   3    1.39492e+09                  0.00000e+00              -5.00000e-01

Constant factor =  1.53063e+10

DC gain =  9.97360e+05

.
9.08e-06       4.00% 
Convergence achieved in 2 iterations.
DC simulation time: CPU = 52 us, elapsed = 61.9888 us.
                      Poles (Hz)

           Real                       Imaginary                 Qfactor

   1   -3.55641e+05              +/- 1.22100e+06              1.78796e+00 
   2   -3.03294e+06                  0.00000e+00              5.00000e-01 
   3   -2.64070e+07                  0.00000e+00              5.00000e-01 

                      Zeros (Hz)
                      at V(VOUT,0)/I5

           Real                       Imaginary                 Qfactor

   1   -5.13860e+06                  0.00000e+00              5.00000e-01 
   2   -7.40783e+06                  0.00000e+00              5.00000e-01 
   3    1.39502e+09                  0.00000e+00              -5.00000e-01

Constant factor =  1.53063e+10

DC gain =  9.98678e+05

...
13.62e-06      6.00% 
Convergence achieved in 2 iterations.
DC simulation time: CPU = 49 us, elapsed = 63.8962 us.
                      Poles (Hz)

           Real                       Imaginary                 Qfactor

   1   -3.43926e+05              +/- 1.53310e+06              2.28422e+00 
   2   -4.51975e+06                  0.00000e+00              5.00000e-01 
   3   -2.60694e+07                  0.00000e+00              5.00000e-01 

                      Zeros (Hz)
                      at V(VOUT,0)/I5

           Real                       Imaginary                 Qfactor

   1   -7.70660e+06                  0.00000e+00              5.00000e-01 
   2   -1.10959e+07                  0.00000e+00              5.00000e-01 
   3    1.39512e+09                  0.00000e+00              -5.00000e-01

Constant factor =  1.53063e+10

DC gain =  9.99119e+05

....
18.16e-06      8.00% 
Convergence achieved in 2 iterations.
DC simulation time: CPU = 47 us, elapsed = 56.982 us.
                      Poles (Hz)

           Real                       Imaginary                 Qfactor

   1   -3.31360e+05              +/- 1.79131e+06              2.74882e+00 
   2   -6.06257e+06                  0.00000e+00              5.00000e-01 
   3   -2.56774e+07                  0.00000e+00              5.00000e-01 

                      Zeros (Hz)
                      at V(VOUT,0)/I5

           Real                       Imaginary                 Qfactor

   1   -1.02748e+07                  0.00000e+00              5.00000e-01 
   2   -1.47830e+07                  0.00000e+00              5.00000e-01 
   3    1.39523e+09                  0.00000e+00              -5.00000e-01

Constant factor =  1.53063e+10

DC gain =  9.99339e+05

......
22.7e-06      10.00% 
Convergence achieved in 2 iterations.
DC simulation time: CPU = 46 us, elapsed = 55.0747 us.
                      Poles (Hz)

           Real                       Imaginary                 Qfactor

   1   -3.18521e+05              +/- 2.01635e+06              3.20442e+00 
   2   -7.67820e+06                  0.00000e+00              5.00000e-01 
   3   -2.52133e+07                  0.00000e+00              5.00000e-01 

                      Zeros (Hz)
                      at V(VOUT,0)/I5

           Real                       Imaginary                 Qfactor

   1   -1.28433e+07                  0.00000e+00              5.00000e-01 
   2   -1.84694e+07                  0.00000e+00              5.00000e-01 
   3    1.39533e+09                  0.00000e+00              -5.00000e-01

Constant factor =  1.53063e+10

DC gain =  9.99471e+05

......9
27.24e-06     12.00% 
Convergence achieved in 2 iterations.
DC simulation time: CPU = 48 us, elapsed = 56.0284 us.
                      Poles (Hz)

           Real                       Imaginary                 Qfactor

   1   -3.05576e+05              +/- 2.21832e+06              3.66401e+00 
   2   -9.39580e+06                  0.00000e+00              5.00000e-01 
   3   -2.46473e+07                  0.00000e+00              5.00000e-01 

                      Zeros (Hz)
                      at V(VOUT,0)/I5

           Real                       Imaginary                 Qfactor

   1   -1.54120e+07                  0.00000e+00              5.00000e-01 
   2   -2.21548e+07                  0.00000e+00              5.00000e-01 
   3    1.39543e+09                  0.00000e+00              -5.00000e-01

Constant factor =  1.53063e+10

DC gain =  9.99559e+05

......9.
31.78e-06     14.00% 
Convergence achieved in 2 iterations.
DC simulation time: CPU = 50 us, elapsed = 59.8431 us.
                      Poles (Hz)

           Real                       Imaginary                 Qfactor

   1   -2.92593e+05              +/- 2.40304e+06              4.13678e+00 
   2   -1.12700e+07                  0.00000e+00              5.00000e-01 
   3   -2.39248e+07                  0.00000e+00              5.00000e-01 

                      Zeros (Hz)
                      at V(VOUT,0)/I5

           Real                       Imaginary                 Qfactor

   1   -1.79809e+07                  0.00000e+00              5.00000e-01 
   2   -2.58394e+07                  0.00000e+00              5.00000e-01 
   3    1.39553e+09                  0.00000e+00              -5.00000e-01

Constant factor =  1.53063e+10

DC gain =  9.99622e+05

......9...
36.32e-06     16.00% 
Convergence achieved in 2 iterations.
DC simulation time: CPU = 46 us, elapsed = 56.0284 us.
                      Poles (Hz)

           Real                       Imaginary                 Qfactor

   1   -2.79603e+05              +/- 2.57422e+06              4.63043e+00 
   2   -1.34277e+07                  0.00000e+00              5.00000e-01 
   3   -2.29189e+07                  0.00000e+00              5.00000e-01 

                      Zeros (Hz)
                      at V(VOUT,0)/I5

           Real                       Imaginary                 Qfactor

   1   -2.05501e+07                  0.00000e+00              5.00000e-01 
   2   -2.95231e+07                  0.00000e+00              5.00000e-01 
   3    1.39563e+09                  0.00000e+00              -5.00000e-01

Constant factor =  1.53063e+10

DC gain =  9.99669e+05

......9....
40.86e-06     18.00% 
Convergence achieved in 2 iterations.
DC simulation time: CPU = 50 us, elapsed = 75.8171 us.
                      Poles (Hz)

           Real                       Imaginary                 Qfactor

   1   -2.66622e+05              +/- 2.73441e+06              5.15219e+00 
   2   -1.63809e+07                  0.00000e+00              5.00000e-01 
   3   -2.11174e+07                  0.00000e+00              5.00000e-01 

                      Zeros (Hz)
                      at V(VOUT,0)/I5

           Real                       Imaginary                 Qfactor

   1   -2.31195e+07                  0.00000e+00              5.00000e-01 
   2   -3.32060e+07                  0.00000e+00              5.00000e-01 
   3    1.39573e+09                  0.00000e+00              -5.00000e-01

Constant factor =  1.53063e+10

DC gain =  9.99706e+05

......9......
45.4e-06      20.00% 
Convergence achieved in 2 iterations.
DC simulation time: CPU = 44 us, elapsed = 51.9753 us.
                      Poles (Hz)

           Real                       Imaginary                 Qfactor

   1   -2.53660e+05              +/- 2.88543e+06              5.70952e+00 
   2   -1.93250e+07              +/- 3.27117e+06              5.07113e-01 

                      Zeros (Hz)
                      at V(VOUT,0)/I5

           Real                       Imaginary                 Qfactor

   1   -2.56891e+07                  0.00000e+00              5.00000e-01 
   2   -3.68880e+07                  0.00000e+00              5.00000e-01 
   3    1.39583e+09                  0.00000e+00              -5.00000e-01

Constant factor =  1.53063e+10

DC gain =  9.99735e+05

......9......8
49.94e-06     22.00% 
Convergence achieved in 2 iterations.
DC simulation time: CPU = 46 us, elapsed = 57.9357 us.
                      Poles (Hz)

           Real                       Imaginary                 Qfactor

   1   -2.40723e+05              +/- 3.02866e+06              6.31059e+00 
   2   -1.99008e+07              +/- 5.13875e+06              5.16400e-01 

                      Zeros (Hz)
                      at V(VOUT,0)/I5

           Real                       Imaginary                 Qfactor

   1   -2.82589e+07                  0.00000e+00              5.00000e-01 
   2   -4.05692e+07                  0.00000e+00              5.00000e-01 
   3    1.39593e+09                  0.00000e+00              -5.00000e-01

Constant factor =  1.53063e+10

DC gain =  9.99759e+05

......9......8.
54.48e-06     24.00% 
Convergence achieved in 2 iterations.
DC simulation time: CPU = 46 us, elapsed = 55.0747 us.
                      Poles (Hz)

           Real                       Imaginary                 Qfactor

   1   -2.27815e+05              +/- 3.16516e+06              6.96475e+00 
   2   -2.04766e+07              +/- 6.44279e+06              5.24166e-01 

                      Zeros (Hz)
                      at V(VOUT,0)/I5

           Real                       Imaginary                 Qfactor

   1   -3.08290e+07                  0.00000e+00              5.00000e-01 
   2   -4.42496e+07                  0.00000e+00              5.00000e-01 
   3    1.39603e+09                  0.00000e+00              -5.00000e-01

Constant factor =  1.53063e+10

DC gain =  9.99779e+05

......9......8...
59.02e-06     26.00% 
Convergence achieved in 2 iterations.
DC simulation time: CPU = 46 us, elapsed = 55.0747 us.
                      Poles (Hz)

           Real                       Imaginary                 Qfactor

   1   -2.14938e+05              +/- 3.29577e+06              7.68309e+00 
   2   -2.10524e+07              +/- 7.48389e+06              5.30654e-01 

                      Zeros (Hz)
                      at V(VOUT,0)/I5

           Real                       Imaginary                 Qfactor

   1   -3.33993e+07                  0.00000e+00              5.00000e-01 
   2   -4.79292e+07                  0.00000e+00              5.00000e-01 
   3    1.39612e+09                  0.00000e+00              -5.00000e-01

Constant factor =  1.53063e+10

DC gain =  9.99796e+05

......9......8....
63.56e-06     28.00% 
Convergence achieved in 2 iterations.
DC simulation time: CPU = 45 us, elapsed = 54.121 us.
                      Poles (Hz)

           Real                       Imaginary                 Qfactor

   1   -2.02093e+05              +/- 3.42116e+06              8.47908e+00 
   2   -2.16281e+07              +/- 8.36086e+06              5.36060e-01 

                      Zeros (Hz)
                      at V(VOUT,0)/I5

           Real                       Imaginary                 Qfactor

   1   -3.59698e+07                  0.00000e+00              5.00000e-01 
   2   -5.16079e+07                  0.00000e+00              5.00000e-01 
   3    1.39622e+09                  0.00000e+00              -5.00000e-01

Constant factor =  1.53063e+10

DC gain =  9.99811e+05

......9......8......
68.1e-06      30.00% 
Convergence achieved in 2 iterations.
DC simulation time: CPU = 46 us, elapsed = 56.982 us.
                      Poles (Hz)

           Real                       Imaginary                 Qfactor

   1   -1.89282e+05              +/- 3.54189e+06              9.36947e+00 
   2   -2.22038e+07              +/- 9.12115e+06              5.40544e-01 

                      Zeros (Hz)
                      at V(VOUT,0)/I5

           Real                       Imaginary                 Qfactor

   1   -3.85406e+07                  0.00000e+00              5.00000e-01 
   2   -5.52859e+07                  0.00000e+00              5.00000e-01 
   3    1.39631e+09                  0.00000e+00              -5.00000e-01

Constant factor =  1.53063e+10

DC gain =  9.99824e+05

......9......8......7
72.64e-06     32.00% 
Convergence achieved in 2 iterations.
DC simulation time: CPU = 46 us, elapsed = 55.0747 us.
                      Poles (Hz)

           Real                       Imaginary                 Qfactor

   1   -1.76505e+05              +/- 3.65842e+06              1.03756e+01 
   2   -2.27794e+07              +/- 9.79197e+06              5.44238e-01 

                      Zeros (Hz)
                      at V(VOUT,0)/I5

           Real                       Imaginary                 Qfactor

   1   -4.11116e+07                  0.00000e+00              5.00000e-01 
   2   -5.89630e+07                  0.00000e+00              5.00000e-01 
   3    1.39641e+09                  0.00000e+00              -5.00000e-01

Constant factor =  1.53063e+10

DC gain =  9.99835e+05

......9......8......7.
77.18e-06     34.00% 
Convergence achieved in 2 iterations.
DC simulation time: CPU = 59 us, elapsed = 56.0284 us.
                      Poles (Hz)

           Real                       Imaginary                 Qfactor

   1   -1.63763e+05              +/- 3.77114e+06              1.15249e+01 
   2   -2.33550e+07              +/- 1.03907e+07              5.47251e-01 

                      Zeros (Hz)
                      at V(VOUT,0)/I5

           Real                       Imaginary                 Qfactor

   1   -4.36828e+07                  0.00000e+00              5.00000e-01 
   2   -6.26393e+07                  0.00000e+00              5.00000e-01 
   3    1.39651e+09                  0.00000e+00              -5.00000e-01

Constant factor =  1.53063e+10

DC gain =  9.99844e+05

......9......8......7...
81.72e-06     36.00% 
Convergence achieved in 2 iterations.
DC simulation time: CPU = 67 us, elapsed = 77.9629 us.
                      Poles (Hz)

           Real                       Imaginary                 Qfactor

   1   -1.51056e+05              +/- 3.88039e+06              1.28539e+01 
   2   -2.39306e+07              +/- 1.09291e+07              5.49675e-01 

                      Zeros (Hz)
                      at V(VOUT,0)/I5

           Real                       Imaginary                 Qfactor

   1   -4.62542e+07                  0.00000e+00              5.00000e-01 
   2   -6.63149e+07                  0.00000e+00              5.00000e-01 
   3    1.39660e+09                  0.00000e+00              -5.00000e-01

Constant factor =  1.53063e+10

DC gain =  9.99853e+05

......9......8......7....
86.26e-06     38.00% 
Convergence achieved in 2 iterations.
DC simulation time: CPU = 56 us, elapsed = 67.9493 us.
                      Poles (Hz)

           Real                       Imaginary                 Qfactor

   1   -1.38385e+05              +/- 3.98645e+06              1.44122e+01 
   2   -2.45062e+07              +/- 1.14157e+07              5.51588e-01 

                      Zeros (Hz)
                      at V(VOUT,0)/I5

           Real                       Imaginary                 Qfactor

   1   -4.88259e+07                  0.00000e+00              5.00000e-01 
   2   -6.99896e+07                  0.00000e+00              5.00000e-01 
   3    1.39669e+09                  0.00000e+00              -5.00000e-01

Constant factor =  1.53063e+10

DC gain =  9.99861e+05

......9......8......7......
90.8e-06      40.00% 
Convergence achieved in 2 iterations.
DC simulation time: CPU = 50 us, elapsed = 68.903 us.
                      Poles (Hz)

           Real                       Imaginary                 Qfactor

   1   -1.25749e+05              +/- 4.08957e+06              1.62686e+01 
   2   -2.50817e+07              +/- 1.18570e+07              5.53054e-01 

                      Zeros (Hz)
                      at V(VOUT,0)/I5

           Real                       Imaginary                 Qfactor

   1   -5.13977e+07                  0.00000e+00              5.00000e-01 
   2   -7.36636e+07                  0.00000e+00              5.00000e-01 
   3    1.39679e+09                  0.00000e+00              -5.00000e-01

Constant factor =  1.53063e+10

DC gain =  9.99868e+05

......9......8......7......6
95.34e-06     42.00% 
Convergence achieved in 2 iterations.
DC simulation time: CPU = 48 us, elapsed = 61.0352 us.
                      Poles (Hz)

           Real                       Imaginary                 Qfactor

   1   -1.13148e+05              +/- 4.18997e+06              1.85222e+01 
   2   -2.56572e+07              +/- 1.22577e+07              5.54131e-01 

                      Zeros (Hz)
                      at V(VOUT,0)/I5

           Real                       Imaginary                 Qfactor

   1   -5.39698e+07                  0.00000e+00              5.00000e-01 
   2   -7.73368e+07                  0.00000e+00              5.00000e-01 
   3    1.39688e+09                  0.00000e+00              -5.00000e-01

Constant factor =  1.53063e+10

DC gain =  9.99874e+05

......9......8......7......6.
99.88e-06     44.00% 
Convergence achieved in 2 iterations.
DC simulation time: CPU = 46 us, elapsed = 60.0815 us.
                      Poles (Hz)

           Real                       Imaginary                 Qfactor

   1   -1.00583e+05              +/- 4.28785e+06              2.13209e+01 
   2   -2.62326e+07              +/- 1.26219e+07              5.54866e-01 

                      Zeros (Hz)
                      at V(VOUT,0)/I5

           Real                       Imaginary                 Qfactor

   1   -5.65421e+07                  0.00000e+00              5.00000e-01 
   2   -8.10093e+07                  0.00000e+00              5.00000e-01 
   3    1.39697e+09                  0.00000e+00              -5.00000e-01

Constant factor =  1.53063e+10

DC gain =  9.99880e+05

......9......8......7......6...
104.42e-06    46.00% 
Convergence achieved in 2 iterations.
DC simulation time: CPU = 63 us, elapsed = 78.9165 us.
                      Poles (Hz)

           Real                       Imaginary                 Qfactor

   1   -8.80529e+04              +/- 4.38336e+06              2.48955e+01 
   2   -2.68080e+07              +/- 1.29524e+07              5.55301e-01 

                      Zeros (Hz)
                      at V(VOUT,0)/I5

           Real                       Imaginary                 Qfactor

   1   -5.91147e+07                  0.00000e+00              5.00000e-01 
   2   -8.46809e+07                  0.00000e+00              5.00000e-01 
   3    1.39706e+09                  0.00000e+00              -5.00000e-01

Constant factor =  1.53063e+10

DC gain =  9.99885e+05

......9......8......7......6....
108.96e-06    48.00% 
Convergence achieved in 2 iterations.
DC simulation time: CPU = 46 us, elapsed = 58.8894 us.
                      Poles (Hz)

           Real                       Imaginary                 Qfactor

   1   -7.55582e+04              +/- 4.47667e+06              2.96282e+01 
   2   -2.73834e+07              +/- 1.32520e+07              5.55473e-01 

                      Zeros (Hz)
                      at V(VOUT,0)/I5

           Real                       Imaginary                 Qfactor

   1   -6.16874e+07                  0.00000e+00              5.00000e-01 
   2   -8.83519e+07                  0.00000e+00              5.00000e-01 
   3    1.39715e+09                  0.00000e+00              -5.00000e-01

Constant factor =  1.53063e+10

DC gain =  9.99890e+05

......9......8......7......6......
113.5e-06     50.00% 
Convergence achieved in 2 iterations.
DC simulation time: CPU = 46 us, elapsed = 61.0352 us.
                      Poles (Hz)

           Real                       Imaginary                 Qfactor

   1   -6.30985e+04              +/- 4.56792e+06              3.62002e+01 
   2   -2.79588e+07              +/- 1.35225e+07              5.55411e-01 

                      Zeros (Hz)
                      at V(VOUT,0)/I5

           Real                       Imaginary                 Qfactor

   1   -6.42604e+07                  0.00000e+00              5.00000e-01 
   2   -9.20220e+07                  0.00000e+00              5.00000e-01 
   3    1.39724e+09                  0.00000e+00              -5.00000e-01

Constant factor =  1.53063e+10

DC gain =  9.99894e+05

......9......8......7......6......5
118.04e-06    52.00% 
Convergence achieved in 2 iterations.
DC simulation time: CPU = 53 us, elapsed = 83.2081 us.
                      Poles (Hz)

           Real                       Imaginary                 Qfactor

   1   -5.06737e+04              +/- 4.65721e+06              4.59557e+01 
   2   -2.85341e+07              +/- 1.37658e+07              5.55144e-01 

                      Zeros (Hz)
                      at V(VOUT,0)/I5

           Real                       Imaginary                 Qfactor

   1   -6.68335e+07                  0.00000e+00              5.00000e-01 
   2   -9.56915e+07                  0.00000e+00              5.00000e-01 
   3    1.39733e+09                  0.00000e+00              -5.00000e-01

Constant factor =  1.53063e+10

DC gain =  9.99898e+05

......9......8......7......6......5.
122.58e-06    54.00% 
Convergence achieved in 2 iterations.
DC simulation time: CPU = 46 us, elapsed = 60.0815 us.
                      Poles (Hz)

           Real                       Imaginary                 Qfactor

   1   -3.82836e+04              +/- 4.74468e+06              6.19694e+01 
   2   -2.91093e+07              +/- 1.39832e+07              5.54696e-01 

                      Zeros (Hz)
                      at V(VOUT,0)/I5

           Real                       Imaginary                 Qfactor

   1   -6.94069e+07                  0.00000e+00              5.00000e-01 
   2   -9.93601e+07                  0.00000e+00              5.00000e-01 
   3    1.39742e+09                  0.00000e+00              -5.00000e-01

Constant factor =  1.53063e+10

DC gain =  9.99902e+05

......9......8......7......6......5...
127.12e-06    56.00% 
Convergence achieved in 2 iterations.
DC simulation time: CPU = 56 us, elapsed = 70.8103 us.
                      Poles (Hz)

           Real                       Imaginary                 Qfactor

   1   -2.59281e+04              +/- 4.83040e+06              9.31512e+01 
   2   -2.96846e+07              +/- 1.41759e+07              5.54088e-01 

                      Zeros (Hz)
                      at V(VOUT,0)/I5

           Real                       Imaginary                 Qfactor

   1   -7.19805e+07                  0.00000e+00              5.00000e-01 
   2   -1.03028e+08                  0.00000e+00              5.00000e-01 
   3    1.39751e+09                  0.00000e+00              -5.00000e-01

Constant factor =  1.53063e+10

DC gain =  9.99905e+05

......9......8......7......6......5....
131.66e-06    58.00% 
Convergence achieved in 2 iterations.
DC simulation time: CPU = 46 us, elapsed = 58.8894 us.
                      Poles (Hz)

           Real                       Imaginary                 Qfactor

   1   -1.36070e+04              +/- 4.91449e+06              1.80588e+02 
   2   -3.02598e+07              +/- 1.43449e+07              5.53338e-01 

                      Zeros (Hz)
                      at V(VOUT,0)/I5

           Real                       Imaginary                 Qfactor

   1   -7.45543e+07                  0.00000e+00              5.00000e-01 
   2   -1.06695e+08                  0.00000e+00              5.00000e-01 
   3    1.39760e+09                  0.00000e+00              -5.00000e-01

Constant factor =  1.53063e+10

DC gain =  9.99909e+05

......9......8......7......6......5......
136.2e-06     60.00% 
Convergence achieved in 2 iterations.
DC simulation time: CPU = 46 us, elapsed = 60.7967 us.
                      Poles (Hz)

           Real                       Imaginary                 Qfactor

   1   -1.32002e+03              +/- 4.99701e+06              1.89278e+03 
   2   -3.08349e+07              +/- 1.44911e+07              5.52463e-01 

                      Zeros (Hz)
                      at V(VOUT,0)/I5

           Real                       Imaginary                 Qfactor

   1   -7.71284e+07                  0.00000e+00              5.00000e-01 
   2   -1.10362e+08                  0.00000e+00              5.00000e-01 
   3    1.39769e+09                  0.00000e+00              -5.00000e-01

Constant factor =  1.53063e+10

DC gain =  9.99912e+05

......9......8......7......6......5......4
140.74e-06    62.00% 
Convergence achieved in 2 iterations.
DC simulation time: CPU = 46 us, elapsed = 57.9357 us.
                      Poles (Hz)

           Real                       Imaginary                 Qfactor

   1    1.09330e+04              +/- 5.07806e+06  **RHP       -2.32236e+02
   2   -3.14101e+07              +/- 1.46151e+07              5.51476e-01 

                      Zeros (Hz)
                      at V(VOUT,0)/I5

           Real                       Imaginary                 Qfactor

   1   -7.97026e+07                  0.00000e+00              5.00000e-01 
   2   -1.14028e+08                  0.00000e+00              5.00000e-01 
   3    1.39778e+09                  0.00000e+00              -5.00000e-01

Constant factor =  1.53063e+10

DC gain =  9.99915e+05

......9......8......7......6......5......4.
145.28e-06    64.00% 
Convergence achieved in 2 iterations.
DC simulation time: CPU = 47 us, elapsed = 63.1809 us.
                      Poles (Hz)

           Real                       Imaginary                 Qfactor

   1    2.31522e+04              +/- 5.15769e+06  **RHP       -1.11388e+02
   2   -3.19852e+07              +/- 1.47174e+07              5.50391e-01 

                      Zeros (Hz)
                      at V(VOUT,0)/I5

           Real                       Imaginary                 Qfactor

   1   -8.22770e+07                  0.00000e+00              5.00000e-01 
   2   -1.17693e+08                  0.00000e+00              5.00000e-01 
   3    1.39786e+09                  0.00000e+00              -5.00000e-01

Constant factor =  1.53063e+10

DC gain =  9.99917e+05

......9......8......7......6......5......4...
149.82e-06    66.00% 
Convergence achieved in 2 iterations.
DC simulation time: CPU = 57 us, elapsed = 70.0951 us.
                      Poles (Hz)

           Real                       Imaginary                 Qfactor

   1    3.53379e+04              +/- 5.23597e+06  **RHP       -7.40861e+01
   2   -3.25602e+07              +/- 1.47986e+07              5.49220e-01 

                      Zeros (Hz)
                      at V(VOUT,0)/I5

           Real                       Imaginary                 Qfactor

   1   -8.48517e+07                  0.00000e+00              5.00000e-01 
   2   -1.21357e+08                  0.00000e+00              5.00000e-01 
   3    1.39795e+09                  0.00000e+00              -5.00000e-01

Constant factor =  1.53063e+10

DC gain =  9.99920e+05

......9......8......7......6......5......4....
154.36e-06    68.00% 
Convergence achieved in 2 iterations.
DC simulation time: CPU = 47 us, elapsed = 58.8894 us.
                      Poles (Hz)

           Real                       Imaginary                 Qfactor

   1    4.74902e+04              +/- 5.31297e+06  **RHP       -5.59398e+01
   2   -3.31353e+07              +/- 1.48590e+07              5.47972e-01 

                      Zeros (Hz)
                      at V(VOUT,0)/I5

           Real                       Imaginary                 Qfactor

   1   -8.74265e+07                  0.00000e+00              5.00000e-01 
   2   -1.25021e+08                  0.00000e+00              5.00000e-01 
   3    1.39803e+09                  0.00000e+00              -5.00000e-01

Constant factor =  1.53063e+10

DC gain =  9.99922e+05

......9......8......7......6......5......4......
158.9e-06     70.00% 
Convergence achieved in 2 iterations.
DC simulation time: CPU = 46 us, elapsed = 58.8894 us.
                      Poles (Hz)

           Real                       Imaginary                 Qfactor

   1    5.96094e+04              +/- 5.38875e+06  **RHP       -4.52032e+01
   2   -3.37103e+07              +/- 1.48987e+07              5.46656e-01 

                      Zeros (Hz)
                      at V(VOUT,0)/I5

           Real                       Imaginary                 Qfactor

   1   -9.00016e+07                  0.00000e+00              5.00000e-01 
   2   -1.28684e+08                  0.00000e+00              5.00000e-01 
   3    1.39812e+09                  0.00000e+00              -5.00000e-01

Constant factor =  1.53063e+10

DC gain =  9.99924e+05

......9......8......7......6......5......4......3
163.44e-06    72.00% 
Convergence achieved in 2 iterations.
DC simulation time: CPU = 45 us, elapsed = 60.0815 us.
                      Poles (Hz)

           Real                       Imaginary                 Qfactor

   1    7.16957e+04              +/- 5.46334e+06  **RHP       -3.81042e+01
   2   -3.42852e+07              +/- 1.49181e+07              5.45281e-01 

                      Zeros (Hz)
                      at V(VOUT,0)/I5

           Real                       Imaginary                 Qfactor

   1   -9.25769e+07                  0.00000e+00              5.00000e-01 
   2   -1.32346e+08                  0.00000e+00              5.00000e-01 
   3    1.39820e+09                  0.00000e+00              -5.00000e-01

Constant factor =  1.53063e+10

DC gain =  9.99926e+05

......9......8......7......6......5......4......3.
167.98e-06    74.00% 
Convergence achieved in 2 iterations.
DC simulation time: CPU = 47 us, elapsed = 59.1278 us.
                      Poles (Hz)

           Real                       Imaginary                 Qfactor

   1    8.37493e+04              +/- 5.53680e+06  **RHP       -3.30596e+01
   2   -3.48602e+07              +/- 1.49171e+07              5.43854e-01 

                      Zeros (Hz)
                      at V(VOUT,0)/I5

           Real                       Imaginary                 Qfactor

   1   -9.51523e+07                  0.00000e+00              5.00000e-01 
   2   -1.36007e+08                  0.00000e+00              5.00000e-01 
   3    1.39829e+09                  0.00000e+00              -5.00000e-01

Constant factor =  1.53063e+10

DC gain =  9.99928e+05

......9......8......7......6......5......4......3...
172.52e-06    76.00% 
Convergence achieved in 2 iterations.
DC simulation time: CPU = 49 us, elapsed = 88.9301 us.
                      Poles (Hz)

           Real                       Imaginary                 Qfactor

   1    9.57704e+04              +/- 5.60919e+06  **RHP       -2.92888e+01
   2   -3.54351e+07              +/- 1.48957e+07              5.42381e-01 

                      Zeros (Hz)
                      at V(VOUT,0)/I5

           Real                       Imaginary                 Qfactor

   1   -9.77280e+07                  0.00000e+00              5.00000e-01 
   2   -1.39668e+08                  0.00000e+00              5.00000e-01 
   3    1.39837e+09                  0.00000e+00              -5.00000e-01

Constant factor =  1.53063e+10

DC gain =  9.99930e+05

......9......8......7......6......5......4......3....
177.06e-06    78.00% 
Convergence achieved in 2 iterations.
DC simulation time: CPU = 47 us, elapsed = 57.9357 us.
                      Poles (Hz)

           Real                       Imaginary                 Qfactor

   1    1.07759e+05              +/- 5.68052e+06  **RHP       -2.63622e+01
   2   -3.60099e+07              +/- 1.48539e+07              5.40868e-01 

                      Zeros (Hz)
                      at V(VOUT,0)/I5

           Real                       Imaginary                 Qfactor

   1   -1.00304e+08                  0.00000e+00              5.00000e-01 
   2   -1.43329e+08                  0.00000e+00              5.00000e-01 
   3    1.39846e+09                  0.00000e+00              -5.00000e-01

Constant factor =  1.53063e+10

DC gain =  9.99932e+05

......9......8......7......6......5......4......3......
181.6e-06     80.00% 
Convergence achieved in 2 iterations.
DC simulation time: CPU = 51 us, elapsed = 63.8962 us.
                      Poles (Hz)

           Real                       Imaginary                 Qfactor

   1    1.19716e+05              +/- 5.75086e+06  **RHP       -2.40240e+01
   2   -3.65848e+07              +/- 1.47914e+07              5.39320e-01 

                      Zeros (Hz)
                      at V(VOUT,0)/I5

           Real                       Imaginary                 Qfactor

   1   -1.02880e+08                  0.00000e+00              5.00000e-01 
   2   -1.46988e+08                  0.00000e+00              5.00000e-01 
   3    1.39854e+09                  0.00000e+00              -5.00000e-01

Constant factor =  1.53063e+10

DC gain =  9.99934e+05

......9......8......7......6......5......4......3......2
186.14e-06    82.00% 
Convergence achieved in 2 iterations.
DC simulation time: CPU = 49 us, elapsed = 91.0759 us.
                      Poles (Hz)

           Real                       Imaginary                 Qfactor

   1    1.31641e+05              +/- 5.82023e+06  **RHP       -2.21121e+01
   2   -3.71596e+07              +/- 1.47081e+07              5.37742e-01 

                      Zeros (Hz)
                      at V(VOUT,0)/I5

           Real                       Imaginary                 Qfactor

   1   -1.05456e+08                  0.00000e+00              5.00000e-01 
   2   -1.50647e+08                  0.00000e+00              5.00000e-01 
   3    1.39862e+09                  0.00000e+00              -5.00000e-01

Constant factor =  1.53063e+10

DC gain =  9.99935e+05

......9......8......7......6......5......4......3......2.
190.68e-06    84.00% 
Convergence achieved in 2 iterations.
DC simulation time: CPU = 52 us, elapsed = 64.8499 us.
                      Poles (Hz)

           Real                       Imaginary                 Qfactor

   1    1.43534e+05              +/- 5.88867e+06  **RHP       -2.05193e+01
   2   -3.77343e+07              +/- 1.46035e+07              5.36138e-01 

                      Zeros (Hz)
                      at V(VOUT,0)/I5

           Real                       Imaginary                 Qfactor

   1   -1.08033e+08                  0.00000e+00              5.00000e-01 
   2   -1.54305e+08                  0.00000e+00              5.00000e-01 
   3    1.39870e+09                  0.00000e+00              -5.00000e-01

Constant factor =  1.53063e+10

DC gain =  9.99937e+05

......9......8......7......6......5......4......3......2...
195.22e-06    86.00% 
Convergence achieved in 2 iterations.
DC simulation time: CPU = 51 us, elapsed = 64.8499 us.
                      Poles (Hz)

           Real                       Imaginary                 Qfactor

   1    1.55396e+05              +/- 5.95622e+06  **RHP       -1.91712e+01
   2   -3.83091e+07              +/- 1.44772e+07              5.34512e-01 

                      Zeros (Hz)
                      at V(VOUT,0)/I5

           Real                       Imaginary                 Qfactor

   1   -1.10609e+08                  0.00000e+00              5.00000e-01 
   2   -1.57963e+08                  0.00000e+00              5.00000e-01 
   3    1.39878e+09                  0.00000e+00              -5.00000e-01

Constant factor =  1.53063e+10

DC gain =  9.99938e+05

......9......8......7......6......5......4......3......2....
199.76e-06    88.00% 
Convergence achieved in 2 iterations.
DC simulation time: CPU = 46 us, elapsed = 57.9357 us.
                      Poles (Hz)

           Real                       Imaginary                 Qfactor

   1    1.67226e+05              +/- 6.02289e+06  **RHP       -1.80152e+01
   2   -3.88838e+07              +/- 1.43286e+07              5.32867e-01 

                      Zeros (Hz)
                      at V(VOUT,0)/I5

           Real                       Imaginary                 Qfactor

   1   -1.13186e+08                  0.00000e+00              5.00000e-01 
   2   -1.61620e+08                  0.00000e+00              5.00000e-01 
   3    1.39887e+09                  0.00000e+00              -5.00000e-01

Constant factor =  1.53063e+10

DC gain =  9.99940e+05

......9......8......7......6......5......4......3......2......
204.3e-06     90.00% 
Convergence achieved in 2 iterations.
DC simulation time: CPU = 46 us, elapsed = 58.8894 us.
                      Poles (Hz)

           Real                       Imaginary                 Qfactor

   1    1.79026e+05              +/- 6.08873e+06  **RHP       -1.70125e+01
   2   -3.94585e+07              +/- 1.41570e+07              5.31207e-01 

                      Zeros (Hz)
                      at V(VOUT,0)/I5

           Real                       Imaginary                 Qfactor

   1   -1.15763e+08                  0.00000e+00              5.00000e-01 
   2   -1.65276e+08                  0.00000e+00              5.00000e-01 
   3    1.39895e+09                  0.00000e+00              -5.00000e-01

Constant factor =  1.53063e+10

DC gain =  9.99941e+05

......9......8......7......6......5......4......3......2......1
208.84e-06    92.00% 
Convergence achieved in 2 iterations.
DC simulation time: CPU = 46 us, elapsed = 58.8894 us.
                      Poles (Hz)

           Real                       Imaginary                 Qfactor

   1    1.90795e+05              +/- 6.15376e+06  **RHP       -1.61344e+01
   2   -4.00331e+07              +/- 1.39615e+07              5.29534e-01 

                      Zeros (Hz)
                      at V(VOUT,0)/I5

           Real                       Imaginary                 Qfactor

   1   -1.18341e+08                  0.00000e+00              5.00000e-01 
   2   -1.68931e+08                  0.00000e+00              5.00000e-01 
   3    1.39903e+09                  0.00000e+00              -5.00000e-01

Constant factor =  1.53063e+10

DC gain =  9.99942e+05

......9......8......7......6......5......4......3......2......1.
213.38e-06    94.00% 
Convergence achieved in 2 iterations.
DC simulation time: CPU = 54 us, elapsed = 62.9425 us.
                      Poles (Hz)

           Real                       Imaginary                 Qfactor

   1    2.02533e+05              +/- 6.21801e+06  **RHP       -1.53588e+01
   2   -4.06077e+07              +/- 1.37412e+07              5.27851e-01 

                      Zeros (Hz)
                      at V(VOUT,0)/I5

           Real                       Imaginary                 Qfactor

   1   -1.20918e+08                  0.00000e+00              5.00000e-01 
   2   -1.72586e+08                  0.00000e+00              5.00000e-01 
   3    1.39911e+09                  0.00000e+00              -5.00000e-01

Constant factor =  1.53063e+10

DC gain =  9.99944e+05

......9......8......7......6......5......4......3......2......1...
217.92e-06    96.00% 
Convergence achieved in 2 iterations.
DC simulation time: CPU = 52 us, elapsed = 63.8962 us.
                      Poles (Hz)

           Real                       Imaginary                 Qfactor

   1    2.14240e+05              +/- 6.28150e+06  **RHP       -1.46685e+01
   2   -4.11823e+07              +/- 1.34948e+07              5.26160e-01 

                      Zeros (Hz)
                      at V(VOUT,0)/I5

           Real                       Imaginary                 Qfactor

   1   -1.23496e+08                  0.00000e+00              5.00000e-01 
   2   -1.76241e+08                  0.00000e+00              5.00000e-01 
   3    1.39919e+09                  0.00000e+00              -5.00000e-01

Constant factor =  1.53063e+10

DC gain =  9.99945e+05

......9......8......7......6......5......4......3......2......1....
222.46e-06    98.00% 
Convergence achieved in 2 iterations.
DC simulation time: CPU = 47 us, elapsed = 60.0815 us.
                      Poles (Hz)

           Real                       Imaginary                 Qfactor

   1    2.25918e+05              +/- 6.34425e+06  **RHP       -1.40500e+01
   2   -4.17569e+07              +/- 1.32208e+07              5.24463e-01 

                      Zeros (Hz)
                      at V(VOUT,0)/I5

           Real                       Imaginary                 Qfactor

   1   -1.26074e+08                  0.00000e+00              5.00000e-01 
   2   -1.79894e+08                  0.00000e+00              5.00000e-01 
   3    1.39926e+09                  0.00000e+00              -5.00000e-01

Constant factor =  1.53063e+10

DC gain =  9.99946e+05

......9......8......7......6......5......4......3......2......1......
227e-06      100.00% 
Convergence achieved in 2 iterations.
DC simulation time: CPU = 52 us, elapsed = 66.0419 us.
                      Poles (Hz)

           Real                       Imaginary                 Qfactor

   1    2.37565e+05              +/- 6.40628e+06  **RHP       -1.34925e+01
   2   -4.23314e+07              +/- 1.29175e+07              5.22761e-01 

                      Zeros (Hz)
                      at V(VOUT,0)/I5

           Real                       Imaginary                 Qfactor

   1   -1.28652e+08                  0.00000e+00              5.00000e-01 
   2   -1.83547e+08                  0.00000e+00              5.00000e-01 
   3    1.39934e+09                  0.00000e+00              -5.00000e-01

Constant factor =  1.53063e+10

DC gain =  9.99947e+05

......9......8......7......6......5......4......3......2......1......0
Accumulated DC solution time =            5.41806 ms.
Intrinsic pz analysis time =              73.5898 ms.
Total time required for pz analysis `pz': CPU = 42.501 ms, elapsed = 79.145 ms, util. = 53.7%.
Time accumulated: CPU = 413.559 ms, elapsed = 820.014 ms.
Peak resident memory used = 197 Mbytes.

modelParameter: writing model parameter values to rawfile.

Opening the PSF file ../psf/modelParameter.info ...
element: writing instance parameter values to rawfile.

Opening the PSF file ../psf/element.info ...
outputParameter: writing output parameter values to rawfile.

Opening the PSF file ../psf/outputParameter.info ...
designParamVals: writing netlist parameters to rawfile.

Opening the PSFASCII file ../psf/designParamVals.info ...
primitives: writing primitives to rawfile.

Opening the PSFASCII file ../psf/primitives.info.primitives ...
subckts: writing subcircuits to rawfile.

Opening the PSFASCII file ../psf/subckts.info.subckts ...
Licensing Information:
Lic Summary:
[05:54:44.162586] Cdslmd servers:3000@lic08.ug.kth.se
[05:54:44.162633] Feature usage summary:
[05:54:44.162634] Virtuoso_Multi_mode_Simulation


Aggregate audit (5:54:44 AM, Fri Nov 21, 2025):
Time used: CPU = 424 ms, elapsed = 872 ms, util. = 48.7%.
Time spent in licensing: elapsed = 298 ms, percentage of total = 34.2%.
Peak memory used = 199 Mbytes.
Simulation started at: 5:54:43 AM, Fri Nov 21, 2025, ended at: 5:54:44 AM, Fri Nov 21, 2025, with elapsed time (wall clock): 872 ms.
spectre completes with 0 errors, 0 warnings, and 4 notices.


********* LOG ENDS **************
**                             **
