
Spectre (R) Circuit Simulator
Version 24.1.0.288.isr5 64bit -- 3 Apr 2025
Copyright (C) 1989-2025 Cadence Design Systems, Inc. All rights reserved worldwide. Cadence and Spectre are registered trademarks of Cadence Design Systems, Inc. All others are the property of their respective holders.

Includes RSA BSAFE(R) Cryptographic or Security Protocol Software from RSA Security, Inc.

User: saul   Host: edatools   HostID: 11AC0200   PID: 52477
Memory  available: 21.6587 GB  physical: 27.3104 GB
Linux   : Rocky Linux release 8.10 (Green Obsidian)
CPU Type: 11th Gen Intel(R) Core(TM) i7-11700K @ 3.60GHz
All processors running at 3600.0 MHz
        Socket: Processors
        0:       0,  1,  2,  3,  4,  5,  6,  7,  8,  9
                10, 11, 12, 13, 14, 15
        
System load averages (1min, 5min, 15min) : 8.5 %, 11.8 %, 10.6 %
HPC is enabled


Simulating `input.scs' on edatools at 9:56:34 AM, Thur Nov 13, 2025 (process id: 52477).
Current working directory: /home/saul/projects/FIL3601/Sim/LAB3/Shunt/adexl/results/data/Interactive.56/1/rootlocus/netlist
Command line:
    /opt/tools/cadence/installs/SPECTRE241/tools/bin/spectre -64  \
        input.scs +escchars +log ../psf/spectre.out -format psfxl -raw  \
        ../psf +aps +mt +lqtimeout 900 -maxw 5 -maxn 5 -env ade  \
        -ahdllibdir  \
        /home/saul/projects/FIL3601/Sim/LAB3/Shunt/adexl/results/data/Interactive.56/sharedData/Job51/ahdl/input.ahdlSimDB  \
        +logstatus  \
        +adespetkn=0001089D13A302B663E41FB550AF0DF415A679A322D5069144BF588C12F604E07EF416DC01A319B562BB63D303E345AA45A37FF02FFA12A37EC951D652FC4F926ED579D15D9175FF34980CBD6B9974D3349877CA11EF18A05BF743E42DC141EA0EAD79D12DF874D3349879D118F874D3349810C4B3B7DF9C5D8D000036DE

Simulation Id: 1yQrLpJQfpqErJZM
Licensing Information:
[09:56:34.188889] Configured Lic search path (24.01-s002): 3000@lic08.ug.kth.se

Licensing Information:
[09:56:34.436385] Periodic Lic check successful

Loading /opt/tools/cadence/installs/SPECTRE241/tools.lnx86/cmi/lib/64bit/5.0/libinfineon_sh.so ...
Loading /opt/tools/cadence/installs/SPECTRE241/tools.lnx86/cmi/lib/64bit/5.0/libphilips_I_sh.so ...
Loading /opt/tools/cadence/installs/SPECTRE241/tools.lnx86/cmi/lib/64bit/5.0/libphilips_sh.so ...
Loading /opt/tools/cadence/installs/SPECTRE241/tools.lnx86/cmi/lib/64bit/5.0/libsparam_sh.so ...
Loading /opt/tools/cadence/installs/SPECTRE241/tools.lnx86/cmi/lib/64bit/5.0/libstmodels_sh.so ...
Reading file:  /home/saul/projects/FIL3601/Sim/LAB3/Shunt/adexl/results/data/Interactive.56/1/rootlocus/netlist/input.scs
Reading file:  /opt/tools/cadence/installs/SPECTRE241/tools.lnx86/spectre/etc/configs/spectre.cfg
Reading file:  /opt/pdk/xfab/XKIT/xh018/cadence/v10_0/spectre/v10_0_2/lpmos/config.scs
Reading file:  /opt/pdk/xfab/XKIT/xh018/cadence/v10_0/spectre/v10_0_2/lpmos/param.scs
Reading file:  /opt/pdk/xfab/XKIT/xh018/cadence/v10_0/spectre/v10_0_2/lpmos/bip.scs
Reading file:  /opt/pdk/xfab/XKIT/xh018/cadence/v10_0/spectre/v10_0_2/lpmos/models/bip/tm_bip.scs
Reading file:  /opt/pdk/xfab/XKIT/xh018/cadence/v10_0/spectre/v10_0_2/lpmos/models/bip/qpva.scs
Reading file:  /opt/pdk/xfab/XKIT/xh018/cadence/v10_0/spectre/v10_0_2/lpmos/models/bip/qpvb.scs
Reading file:  /opt/pdk/xfab/XKIT/xh018/cadence/v10_0/spectre/v10_0_2/lpmos/models/bip/qpvc.scs
Reading file:  /opt/pdk/xfab/XKIT/xh018/cadence/v10_0/spectre/v10_0_2/lpmos/models/bip/qpva3.scs
Reading file:  /opt/pdk/xfab/XKIT/xh018/cadence/v10_0/spectre/v10_0_2/lpmos/models/bip/qpvb3.scs
Reading file:  /opt/pdk/xfab/XKIT/xh018/cadence/v10_0/spectre/v10_0_2/lpmos/models/bip/qpvc3.scs
Reading file:  /opt/pdk/xfab/XKIT/xh018/cadence/v10_0/spectre/v10_0_2/lpmos/models/bip/qnva.scs
Reading file:  /opt/pdk/xfab/XKIT/xh018/cadence/v10_0/spectre/v10_0_2/lpmos/models/bip/qnvb.scs
Reading file:  /opt/pdk/xfab/XKIT/xh018/cadence/v10_0/spectre/v10_0_2/lpmos/models/bip/qnvba.scs
Reading file:  /opt/pdk/xfab/XKIT/xh018/cadence/v10_0/spectre/v10_0_2/lpmos/models/bip/qnvbb.scs
Reading file:  /opt/pdk/xfab/XKIT/xh018/cadence/v10_0/spectre/v10_0_2/lpmos/models/bip/qnvc.scs
Reading file:  /opt/pdk/xfab/XKIT/xh018/cadence/v10_0/spectre/v10_0_2/lpmos/models/bip/qnvca.scs
Reading file:  /opt/pdk/xfab/XKIT/xh018/cadence/v10_0/spectre/v10_0_2/lpmos/models/bip/qnvcb.scs
Reading file:  /opt/pdk/xfab/XKIT/xh018/cadence/v10_0/spectre/v10_0_2/lpmos/models/bip/qpvhscr.scs
Reading file:  /opt/pdk/xfab/XKIT/xh018/cadence/v10_0/spectre/v10_0_2/lpmos/models/bip/qpvascr.scs
Reading file:  /opt/pdk/xfab/XKIT/xh018/cadence/v10_0/spectre/v10_0_2/lpmos/models/bip/qpvhbscr.scs
Reading file:  /opt/pdk/xfab/XKIT/xh018/cadence/v10_0/spectre/v10_0_2/lpmos/models/bip/qpv_pa.scs
Reading file:  /opt/pdk/xfab/XKIT/xh018/cadence/v10_0/spectre/v10_0_2/lpmos/models/bip/qpv_pb.scs
Reading file:  /opt/pdk/xfab/XKIT/xh018/cadence/v10_0/spectre/v10_0_2/lpmos/models/bip/qpv_pc.scs
Reading file:  /opt/pdk/xfab/XKIT/xh018/cadence/v10_0/spectre/v10_0_2/lpmos/models/bip/qpv_pd.scs
Reading file:  /opt/pdk/xfab/XKIT/xh018/cadence/v10_0/spectre/v10_0_2/lpmos/models/bip/qpv_pe.scs
Reading file:  /opt/pdk/xfab/XKIT/xh018/cadence/v10_0/spectre/v10_0_2/lpmos/models/bip/qpv_pf.scs
Reading file:  /opt/pdk/xfab/XKIT/xh018/cadence/v10_0/spectre/v10_0_2/lpmos/models/bip/qpl_pa.scs
Reading file:  /opt/pdk/xfab/XKIT/xh018/cadence/v10_0/spectre/v10_0_2/lpmos/models/bip/qpl_pb.scs
Reading file:  /opt/pdk/xfab/XKIT/xh018/cadence/v10_0/spectre/v10_0_2/lpmos/models/bip/qpl_pc.scs
Reading file:  /opt/pdk/xfab/XKIT/xh018/cadence/v10_0/spectre/v10_0_2/lpmos/models/bip/qpl_pd.scs
Reading file:  /opt/pdk/xfab/XKIT/xh018/cadence/v10_0/spectre/v10_0_2/lpmos/models/bip/qpl_pe.scs
Reading file:  /opt/pdk/xfab/XKIT/xh018/cadence/v10_0/spectre/v10_0_2/lpmos/models/bip/qpl_pf.scs
Reading file:  /opt/pdk/xfab/XKIT/xh018/cadence/v10_0/spectre/v10_0_2/lpmos/models/bip/qnl_pa.scs
Reading file:  /opt/pdk/xfab/XKIT/xh018/cadence/v10_0/spectre/v10_0_2/lpmos/models/bip/qnl_pb.scs
Reading file:  /opt/pdk/xfab/XKIT/xh018/cadence/v10_0/spectre/v10_0_2/lpmos/models/bip/qnl_pc.scs
Reading file:  /opt/pdk/xfab/XKIT/xh018/cadence/v10_0/spectre/v10_0_2/lpmos/models/bip/qnl_pd.scs
Reading file:  /opt/pdk/xfab/XKIT/xh018/cadence/v10_0/spectre/v10_0_2/lpmos/models/bip/qnl_pe.scs
Reading file:  /opt/pdk/xfab/XKIT/xh018/cadence/v10_0/spectre/v10_0_2/lpmos/models/bip/qnl_pf.scs
Reading file:  /opt/pdk/xfab/XKIT/xh018/cadence/v10_0/spectre/v10_0_2/lpmos/cap.scs
Reading file:  /opt/pdk/xfab/XKIT/xh018/cadence/v10_0/spectre/v10_0_2/lpmos/models/cap/tm_cap.scs
Reading file:  /opt/pdk/xfab/XKIT/xh018/cadence/v10_0/spectre/v10_0_2/lpmos/models/cap/csandwt3.scs
Reading file:  /opt/pdk/xfab/XKIT/xh018/cadence/v10_0/spectre/v10_0_2/lpmos/models/cap/csandwt4.scs
Reading file:  /opt/pdk/xfab/XKIT/xh018/cadence/v10_0/spectre/v10_0_2/lpmos/models/cap/csandwt5.scs
Reading file:  /opt/pdk/xfab/XKIT/xh018/cadence/v10_0/spectre/v10_0_2/lpmos/models/cap/csf2p.scs
Reading file:  /opt/pdk/xfab/XKIT/xh018/cadence/v10_0/spectre/v10_0_2/lpmos/models/cap/csf3p.scs
Reading file:  /opt/pdk/xfab/XKIT/xh018/cadence/v10_0/spectre/v10_0_2/lpmos/models/cap/csf3.scs
Reading file:  /opt/pdk/xfab/XKIT/xh018/cadence/v10_0/spectre/v10_0_2/lpmos/models/cap/csf4.scs
Reading file:  /opt/pdk/xfab/XKIT/xh018/cadence/v10_0/spectre/v10_0_2/lpmos/models/cap/csf5.scs
Reading file:  /opt/pdk/xfab/XKIT/xh018/cadence/v10_0/spectre/v10_0_2/lpmos/models/cap/csft4.scs
Reading file:  /opt/pdk/xfab/XKIT/xh018/cadence/v10_0/spectre/v10_0_2/lpmos/models/cap/csft5.scs
Reading file:  /opt/pdk/xfab/XKIT/xh018/cadence/v10_0/spectre/v10_0_2/lpmos/models/cap/csft6.scs
Reading file:  /opt/pdk/xfab/XKIT/xh018/cadence/v10_0/spectre/v10_0_2/lpmos/models/cap/csf3a.scs
Reading file:  /opt/pdk/xfab/XKIT/xh018/cadence/v10_0/spectre/v10_0_2/lpmos/models/cap/csf4a.scs
Reading file:  /opt/pdk/xfab/XKIT/xh018/cadence/v10_0/spectre/v10_0_2/lpmos/models/cap/csf5a.scs
Reading file:  /opt/pdk/xfab/XKIT/xh018/cadence/v10_0/spectre/v10_0_2/lpmos/models/cap/csft4a.scs
Reading file:  /opt/pdk/xfab/XKIT/xh018/cadence/v10_0/spectre/v10_0_2/lpmos/models/cap/csft5a.scs
Reading file:  /opt/pdk/xfab/XKIT/xh018/cadence/v10_0/spectre/v10_0_2/lpmos/models/cap/csft6a.scs
Reading file:  /opt/pdk/xfab/XKIT/xh018/cadence/v10_0/spectre/v10_0_2/lpmos/models/cap/cif3a.scs
Reading file:  /opt/pdk/xfab/XKIT/xh018/cadence/v10_0/spectre/v10_0_2/lpmos/models/cap/cif4a.scs
Reading file:  /opt/pdk/xfab/XKIT/xh018/cadence/v10_0/spectre/v10_0_2/lpmos/models/cap/cif5a.scs
Reading file:  /opt/pdk/xfab/XKIT/xh018/cadence/v10_0/spectre/v10_0_2/lpmos/models/cap/cift4a.scs
Reading file:  /opt/pdk/xfab/XKIT/xh018/cadence/v10_0/spectre/v10_0_2/lpmos/models/cap/cift5a.scs
Reading file:  /opt/pdk/xfab/XKIT/xh018/cadence/v10_0/spectre/v10_0_2/lpmos/models/cap/cift6a.scs
Reading file:  /opt/pdk/xfab/XKIT/xh018/cadence/v10_0/spectre/v10_0_2/lpmos/models/cap/cmm3.scs
Reading file:  /opt/pdk/xfab/XKIT/xh018/cadence/v10_0/spectre/v10_0_2/lpmos/models/cap/cmm4t.scs
Reading file:  /opt/pdk/xfab/XKIT/xh018/cadence/v10_0/spectre/v10_0_2/lpmos/models/cap/cmm4.scs
Reading file:  /opt/pdk/xfab/XKIT/xh018/cadence/v10_0/spectre/v10_0_2/lpmos/models/cap/cmm5t.scs
Reading file:  /opt/pdk/xfab/XKIT/xh018/cadence/v10_0/spectre/v10_0_2/lpmos/models/cap/cmm6t.scs
Reading file:  /opt/pdk/xfab/XKIT/xh018/cadence/v10_0/spectre/v10_0_2/lpmos/models/cap/cdmm4.scs
Reading file:  /opt/pdk/xfab/XKIT/xh018/cadence/v10_0/spectre/v10_0_2/lpmos/models/cap/cdmm4t.scs
Reading file:  /opt/pdk/xfab/XKIT/xh018/cadence/v10_0/spectre/v10_0_2/lpmos/models/cap/ctmm5.scs
Reading file:  /opt/pdk/xfab/XKIT/xh018/cadence/v10_0/spectre/v10_0_2/lpmos/models/cap/ctmm5t.scs
Reading file:  /opt/pdk/xfab/XKIT/xh018/cadence/v10_0/spectre/v10_0_2/lpmos/models/cap/cmmh3.scs
Reading file:  /opt/pdk/xfab/XKIT/xh018/cadence/v10_0/spectre/v10_0_2/lpmos/models/cap/cmmh4t.scs
Reading file:  /opt/pdk/xfab/XKIT/xh018/cadence/v10_0/spectre/v10_0_2/lpmos/models/cap/cmmh4.scs
Reading file:  /opt/pdk/xfab/XKIT/xh018/cadence/v10_0/spectre/v10_0_2/lpmos/models/cap/cmmh5t.scs
Reading file:  /opt/pdk/xfab/XKIT/xh018/cadence/v10_0/spectre/v10_0_2/lpmos/models/cap/cmmh6t.scs
Reading file:  /opt/pdk/xfab/XKIT/xh018/cadence/v10_0/spectre/v10_0_2/lpmos/models/cap/cdmmh4.scs
Reading file:  /opt/pdk/xfab/XKIT/xh018/cadence/v10_0/spectre/v10_0_2/lpmos/models/cap/cdmmh4t.scs
Reading file:  /opt/pdk/xfab/XKIT/xh018/cadence/v10_0/spectre/v10_0_2/lpmos/models/cap/ctmmh5.scs
Reading file:  /opt/pdk/xfab/XKIT/xh018/cadence/v10_0/spectre/v10_0_2/lpmos/models/cap/ctmmh5t.scs
Reading file:  /opt/pdk/xfab/XKIT/xh018/cadence/v10_0/spectre/v10_0_2/lpmos/models/cap/mosvc.scs
Reading file:  /opt/pdk/xfab/XKIT/xh018/cadence/v10_0/spectre/v10_0_2/lpmos/models/cap/mosvc_pmos.scs
Reading file:  /opt/pdk/xfab/XKIT/xh018/cadence/v10_0/spectre/v10_0_2/lpmos/models/cap/mosvci.scs
Reading file:  /opt/pdk/xfab/XKIT/xh018/cadence/v10_0/spectre/v10_0_2/lpmos/models/cap/mosvci_nmos.scs
Reading file:  /opt/pdk/xfab/XKIT/xh018/cadence/v10_0/spectre/v10_0_2/lpmos/models/cap/mosvci_m.scs
Reading file:  /opt/pdk/xfab/XKIT/xh018/cadence/v10_0/spectre/v10_0_2/lpmos/models/cap/mosvc3.scs
Reading file:  /opt/pdk/xfab/XKIT/xh018/cadence/v10_0/spectre/v10_0_2/lpmos/models/cap/mosvc3_pmos.scs
Reading file:  /opt/pdk/xfab/XKIT/xh018/cadence/v10_0/spectre/v10_0_2/lpmos/models/cap/mosvc3i.scs
Reading file:  /opt/pdk/xfab/XKIT/xh018/cadence/v10_0/spectre/v10_0_2/lpmos/models/cap/mosvc3i_nmos.scs
Reading file:  /opt/pdk/xfab/XKIT/xh018/cadence/v10_0/spectre/v10_0_2/lpmos/models/cap/mosvc3i_m.scs
Reading file:  /opt/pdk/xfab/XKIT/xh018/cadence/v10_0/spectre/v10_0_2/lpmos/models/cap/cpod.scs
Reading file:  /opt/pdk/xfab/XKIT/xh018/cadence/v10_0/spectre/v10_0_2/lpmos/models/cap/cpod_i.scs
Reading file:  /opt/pdk/xfab/XKIT/xh018/cadence/v10_0/spectre/v10_0_2/lpmos/models/cap/cpodhv.scs
Reading file:  /opt/pdk/xfab/XKIT/xh018/cadence/v10_0/spectre/v10_0_2/lpmos/models/cap/cpodhv_i.scs
Reading file:  /opt/pdk/xfab/XKIT/xh018/cadence/v10_0/spectre/v10_0_2/lpmos/models/cap/cp1sub.scs
Reading file:  /opt/pdk/xfab/XKIT/xh018/cadence/v10_0/spectre/v10_0_2/lpmos/models/cap/cp1suba.scs
Reading file:  /opt/pdk/xfab/XKIT/xh018/cadence/v10_0/spectre/v10_0_2/lpmos/models/cap/cp1subp.scs
Reading file:  /opt/pdk/xfab/XKIT/xh018/cadence/v10_0/spectre/v10_0_2/lpmos/models/cap/tag_25v.scs
Reading file:  /opt/pdk/xfab/XKIT/xh018/cadence/v10_0/spectre/v10_0_2/lpmos/models/cap/tag_60v.scs
Reading file:  /opt/pdk/xfab/XKIT/xh018/cadence/v10_0/spectre/v10_0_2/lpmos/dio.scs
Reading file:  /opt/pdk/xfab/XKIT/xh018/cadence/v10_0/spectre/v10_0_2/lpmos/models/dio/tm_dio.scs
Reading file:  /opt/pdk/xfab/XKIT/xh018/cadence/v10_0/spectre/v10_0_2/lpmos/models/dio/dn.scs
Reading file:  /opt/pdk/xfab/XKIT/xh018/cadence/v10_0/spectre/v10_0_2/lpmos/models/dio/dp.scs
Reading file:  /opt/pdk/xfab/XKIT/xh018/cadence/v10_0/spectre/v10_0_2/lpmos/models/dio/dnw.scs
Reading file:  /opt/pdk/xfab/XKIT/xh018/cadence/v10_0/spectre/v10_0_2/lpmos/models/dio/dn3.scs
Reading file:  /opt/pdk/xfab/XKIT/xh018/cadence/v10_0/spectre/v10_0_2/lpmos/models/dio/dnn3.scs
Reading file:  /opt/pdk/xfab/XKIT/xh018/cadence/v10_0/spectre/v10_0_2/lpmos/models/dio/dp3.scs
Reading file:  /opt/pdk/xfab/XKIT/xh018/cadence/v10_0/spectre/v10_0_2/lpmos/models/dio/dnw3.scs
Reading file:  /opt/pdk/xfab/XKIT/xh018/cadence/v10_0/spectre/v10_0_2/lpmos/models/dio/ddnwmv.scs
Reading file:  /opt/pdk/xfab/XKIT/xh018/cadence/v10_0/spectre/v10_0_2/lpmos/models/dio/dpdnwmv.scs
Reading file:  /opt/pdk/xfab/XKIT/xh018/cadence/v10_0/spectre/v10_0_2/lpmos/models/dio/dipdnwmv.scs
Reading file:  /opt/pdk/xfab/XKIT/xh018/cadence/v10_0/spectre/v10_0_2/lpmos/models/dio/ddnw.scs
Reading file:  /opt/pdk/xfab/XKIT/xh018/cadence/v10_0/spectre/v10_0_2/lpmos/models/dio/ddnwa.scs
Reading file:  /opt/pdk/xfab/XKIT/xh018/cadence/v10_0/spectre/v10_0_2/lpmos/models/dio/dpdnw.scs
Reading file:  /opt/pdk/xfab/XKIT/xh018/cadence/v10_0/spectre/v10_0_2/lpmos/models/dio/dipdnw.scs
Reading file:  /opt/pdk/xfab/XKIT/xh018/cadence/v10_0/spectre/v10_0_2/lpmos/models/dio/dnhpw.scs
Reading file:  /opt/pdk/xfab/XKIT/xh018/cadence/v10_0/spectre/v10_0_2/lpmos/models/dio/dnhpwa.scs
Reading file:  /opt/pdk/xfab/XKIT/xh018/cadence/v10_0/spectre/v10_0_2/lpmos/models/dio/dphnw.scs
Reading file:  /opt/pdk/xfab/XKIT/xh018/cadence/v10_0/spectre/v10_0_2/lpmos/models/dio/dphnwa.scs
Reading file:  /opt/pdk/xfab/XKIT/xh018/cadence/v10_0/spectre/v10_0_2/lpmos/models/dio/dhpw.scs
Reading file:  /opt/pdk/xfab/XKIT/xh018/cadence/v10_0/spectre/v10_0_2/lpmos/models/dio/dhnw.scs
Reading file:  /opt/pdk/xfab/XKIT/xh018/cadence/v10_0/spectre/v10_0_2/lpmos/models/dio/dndf.scs
Reading file:  /opt/pdk/xfab/XKIT/xh018/cadence/v10_0/spectre/v10_0_2/lpmos/models/dio/dpdwhn.scs
Reading file:  /opt/pdk/xfab/XKIT/xh018/cadence/v10_0/spectre/v10_0_2/lpmos/models/dio/dwhn.scs
Reading file:  /opt/pdk/xfab/XKIT/xh018/cadence/v10_0/spectre/v10_0_2/lpmos/models/dio/dpwhn.scs
Reading file:  /opt/pdk/xfab/XKIT/xh018/cadence/v10_0/spectre/v10_0_2/lpmos/models/dio/dpndf.scs
Reading file:  /opt/pdk/xfab/XKIT/xh018/cadence/v10_0/spectre/v10_0_2/lpmos/models/dio/dpdddnw.scs
Reading file:  /opt/pdk/xfab/XKIT/xh018/cadence/v10_0/spectre/v10_0_2/lpmos/models/dio/ddpldnw.scs
Reading file:  /opt/pdk/xfab/XKIT/xh018/cadence/v10_0/spectre/v10_0_2/lpmos/models/dio/dn3dpl.scs
Reading file:  /opt/pdk/xfab/XKIT/xh018/cadence/v10_0/spectre/v10_0_2/lpmos/models/dio/dbn.scs
Reading file:  /opt/pdk/xfab/XKIT/xh018/cadence/v10_0/spectre/v10_0_2/lpmos/models/dio/dpol.scs
Reading file:  /opt/pdk/xfab/XKIT/xh018/cadence/v10_0/spectre/v10_0_2/lpmos/models/dio/dnpdd_scr.scs
Reading file:  /opt/pdk/xfab/XKIT/xh018/cadence/v10_0/spectre/v10_0_2/lpmos/models/dio/dpdd_scr.scs
Reading file:  /opt/pdk/xfab/XKIT/xh018/cadence/v10_0/spectre/v10_0_2/lpmos/models/dio/dsb.scs
Reading file:  /opt/pdk/xfab/XKIT/xh018/cadence/v10_0/spectre/v10_0_2/lpmos/models/dio/dsba.scs
Reading file:  /opt/pdk/xfab/XKIT/xh018/cadence/v10_0/spectre/v10_0_2/lpmos/models/dio/dsba_qp1.scs
Reading file:  /opt/pdk/xfab/XKIT/xh018/cadence/v10_0/spectre/v10_0_2/lpmos/models/dio/dnp20.scs
Reading file:  /opt/pdk/xfab/XKIT/xh018/cadence/v10_0/spectre/v10_0_2/lpmos/models/dio/dpp20.scs
Reading file:  /opt/pdk/xfab/XKIT/xh018/cadence/v10_0/spectre/v10_0_2/lpmos/models/dio/dn3sci.scs
Reading file:  /opt/pdk/xfab/XKIT/xh018/cadence/v10_0/spectre/v10_0_2/lpmos/models/dio/dscidnwmv.scs
Reading file:  /opt/pdk/xfab/XKIT/xh018/cadence/v10_0/spectre/v10_0_2/lpmos/mos.scs
Reading file:  /opt/pdk/xfab/XKIT/xh018/cadence/v10_0/spectre/v10_0_2/lpmos/models/mos/tm_mos.scs
Reading file:  /opt/pdk/xfab/XKIT/xh018/cadence/v10_0/spectre/v10_0_2/lpmos/models/mos/ne.scs
Reading file:  /opt/pdk/xfab/XKIT/xh018/cadence/v10_0/spectre/v10_0_2/lpmos/models/mos/nei.scs
Reading file:  /opt/pdk/xfab/XKIT/xh018/cadence/v10_0/spectre/v10_0_2/lpmos/models/mos/nei_6.scs
Reading file:  /opt/pdk/xfab/XKIT/xh018/cadence/v10_0/spectre/v10_0_2/lpmos/models/mos/nei_m_6.scs
Reading file:  /opt/pdk/xfab/XKIT/xh018/cadence/v10_0/spectre/v10_0_2/lpmos/models/mos/nei_a_6.scs
Reading file:  /opt/pdk/xfab/XKIT/xh018/cadence/v10_0/spectre/v10_0_2/lpmos/models/mos/pe.scs
Reading file:  /opt/pdk/xfab/XKIT/xh018/cadence/v10_0/spectre/v10_0_2/lpmos/models/mos/pe_5.scs
Reading file:  /opt/pdk/xfab/XKIT/xh018/cadence/v10_0/spectre/v10_0_2/lpmos/models/mos/pei.scs
Reading file:  /opt/pdk/xfab/XKIT/xh018/cadence/v10_0/spectre/v10_0_2/lpmos/models/mos/pei_5.scs
Reading file:  /opt/pdk/xfab/XKIT/xh018/cadence/v10_0/spectre/v10_0_2/lpmos/models/mos/pei_m_5.scs
Reading file:  /opt/pdk/xfab/XKIT/xh018/cadence/v10_0/spectre/v10_0_2/lpmos/models/mos/pei_a_5.scs
Reading file:  /opt/pdk/xfab/XKIT/xh018/cadence/v10_0/spectre/v10_0_2/lpmos/models/mos/nel.scs
Reading file:  /opt/pdk/xfab/XKIT/xh018/cadence/v10_0/spectre/v10_0_2/lpmos/models/mos/neli.scs
Reading file:  /opt/pdk/xfab/XKIT/xh018/cadence/v10_0/spectre/v10_0_2/lpmos/models/mos/neli_6.scs
Reading file:  /opt/pdk/xfab/XKIT/xh018/cadence/v10_0/spectre/v10_0_2/lpmos/models/mos/neli_m_6.scs
Reading file:  /opt/pdk/xfab/XKIT/xh018/cadence/v10_0/spectre/v10_0_2/lpmos/models/mos/pel.scs
Reading file:  /opt/pdk/xfab/XKIT/xh018/cadence/v10_0/spectre/v10_0_2/lpmos/models/mos/pel_5.scs
Reading file:  /opt/pdk/xfab/XKIT/xh018/cadence/v10_0/spectre/v10_0_2/lpmos/models/mos/peli.scs
Reading file:  /opt/pdk/xfab/XKIT/xh018/cadence/v10_0/spectre/v10_0_2/lpmos/models/mos/peli_5.scs
Reading file:  /opt/pdk/xfab/XKIT/xh018/cadence/v10_0/spectre/v10_0_2/lpmos/models/mos/peli_m_5.scs
Reading file:  /opt/pdk/xfab/XKIT/xh018/cadence/v10_0/spectre/v10_0_2/lpmos/models/mos/nn3.scs
Reading file:  /opt/pdk/xfab/XKIT/xh018/cadence/v10_0/spectre/v10_0_2/lpmos/models/mos/ne3.scs
Reading file:  /opt/pdk/xfab/XKIT/xh018/cadence/v10_0/spectre/v10_0_2/lpmos/models/mos/ne3i.scs
Reading file:  /opt/pdk/xfab/XKIT/xh018/cadence/v10_0/spectre/v10_0_2/lpmos/models/mos/ne3i_6.scs
Reading file:  /opt/pdk/xfab/XKIT/xh018/cadence/v10_0/spectre/v10_0_2/lpmos/models/mos/ne3i_m_6.scs
Reading file:  /opt/pdk/xfab/XKIT/xh018/cadence/v10_0/spectre/v10_0_2/lpmos/models/mos/ne3i_a_6.scs
Reading file:  /opt/pdk/xfab/XKIT/xh018/cadence/v10_0/spectre/v10_0_2/lpmos/models/mos/pe3.scs
Reading file:  /opt/pdk/xfab/XKIT/xh018/cadence/v10_0/spectre/v10_0_2/lpmos/models/mos/pe3_5.scs
Reading file:  /opt/pdk/xfab/XKIT/xh018/cadence/v10_0/spectre/v10_0_2/lpmos/models/mos/pe3i.scs
Reading file:  /opt/pdk/xfab/XKIT/xh018/cadence/v10_0/spectre/v10_0_2/lpmos/models/mos/pe3i_5.scs
Reading file:  /opt/pdk/xfab/XKIT/xh018/cadence/v10_0/spectre/v10_0_2/lpmos/models/mos/pe3i_m_5.scs
Reading file:  /opt/pdk/xfab/XKIT/xh018/cadence/v10_0/spectre/v10_0_2/lpmos/models/mos/pe3i_a_5.scs
Reading file:  /opt/pdk/xfab/XKIT/xh018/cadence/v10_0/spectre/v10_0_2/lpmos/models/mos/pe3ln.scs
Reading file:  /opt/pdk/xfab/XKIT/xh018/cadence/v10_0/spectre/v10_0_2/lpmos/models/mos/pe3ln_5.scs
Reading file:  /opt/pdk/xfab/XKIT/xh018/cadence/v10_0/spectre/v10_0_2/lpmos/models/mos/pe3lni.scs
Reading file:  /opt/pdk/xfab/XKIT/xh018/cadence/v10_0/spectre/v10_0_2/lpmos/models/mos/pe3lni_5.scs
Reading file:  /opt/pdk/xfab/XKIT/xh018/cadence/v10_0/spectre/v10_0_2/lpmos/models/mos/pe3lni_m_5.scs
Reading file:  /opt/pdk/xfab/XKIT/xh018/cadence/v10_0/spectre/v10_0_2/lpmos/models/mos/nd3.scs
Reading file:  /opt/pdk/xfab/XKIT/xh018/cadence/v10_0/spectre/v10_0_2/lpmos/models/mos/nd3_mos1.scs
Reading file:  /opt/pdk/xfab/XKIT/xh018/cadence/v10_0/spectre/v10_0_2/lpmos/models/mos/nd3_mos2.scs
Reading file:  /opt/pdk/xfab/XKIT/xh018/cadence/v10_0/spectre/v10_0_2/lpmos/models/mos/nd3i.scs
Reading file:  /opt/pdk/xfab/XKIT/xh018/cadence/v10_0/spectre/v10_0_2/lpmos/models/mos/nd3i_mos1.scs
Reading file:  /opt/pdk/xfab/XKIT/xh018/cadence/v10_0/spectre/v10_0_2/lpmos/models/mos/nd3i_mos2.scs
Reading file:  /opt/pdk/xfab/XKIT/xh018/cadence/v10_0/spectre/v10_0_2/lpmos/models/mos/nd3i_6.scs
Reading file:  /opt/pdk/xfab/XKIT/xh018/cadence/v10_0/spectre/v10_0_2/lpmos/models/mos/nd3i_m_6.scs
Reading file:  /opt/pdk/xfab/XKIT/xh018/cadence/v10_0/spectre/v10_0_2/lpmos/models/mos/nelna.scs
Reading file:  /opt/pdk/xfab/XKIT/xh018/cadence/v10_0/spectre/v10_0_2/lpmos/models/mos/nelnai.scs
Reading file:  /opt/pdk/xfab/XKIT/xh018/cadence/v10_0/spectre/v10_0_2/lpmos/models/mos/nelnai_6.scs
Reading file:  /opt/pdk/xfab/XKIT/xh018/cadence/v10_0/spectre/v10_0_2/lpmos/models/mos/nelnai_m_6.scs
Reading file:  /opt/pdk/xfab/XKIT/xh018/cadence/v10_0/spectre/v10_0_2/lpmos/models/mos/ne3lna.scs
Reading file:  /opt/pdk/xfab/XKIT/xh018/cadence/v10_0/spectre/v10_0_2/lpmos/models/mos/ne3lnai.scs
Reading file:  /opt/pdk/xfab/XKIT/xh018/cadence/v10_0/spectre/v10_0_2/lpmos/models/mos/ne3lnai_6.scs
Reading file:  /opt/pdk/xfab/XKIT/xh018/cadence/v10_0/spectre/v10_0_2/lpmos/models/mos/ne3lnai_m_6.scs
Reading file:  /opt/pdk/xfab/XKIT/xh018/cadence/v10_0/spectre/v10_0_2/lpmos/models/mos/pe3lna.scs
Reading file:  /opt/pdk/xfab/XKIT/xh018/cadence/v10_0/spectre/v10_0_2/lpmos/models/mos/pe3lna_5.scs
Reading file:  /opt/pdk/xfab/XKIT/xh018/cadence/v10_0/spectre/v10_0_2/lpmos/models/mos/pe3lnai.scs
Reading file:  /opt/pdk/xfab/XKIT/xh018/cadence/v10_0/spectre/v10_0_2/lpmos/models/mos/pe3lnai_5.scs
Reading file:  /opt/pdk/xfab/XKIT/xh018/cadence/v10_0/spectre/v10_0_2/lpmos/models/mos/pe3lnai_m_5.scs
Reading file:  /opt/pdk/xfab/XKIT/xh018/cadence/v10_0/spectre/v10_0_2/lpmos/models/mos/nmma.scs
Reading file:  /opt/pdk/xfab/XKIT/xh018/cadence/v10_0/spectre/v10_0_2/lpmos/models/mos/jf_nmma.scs
Reading file:  /opt/pdk/xfab/XKIT/xh018/cadence/v10_0/spectre/v10_0_2/lpmos/models/mos/nmma_bjt.scs
Reading file:  /opt/pdk/xfab/XKIT/xh018/cadence/v10_0/spectre/v10_0_2/lpmos/models/mos/pmma.scs
Reading file:  /opt/pdk/xfab/XKIT/xh018/cadence/v10_0/spectre/v10_0_2/lpmos/models/mos/jf_pmma.scs
Reading file:  /opt/pdk/xfab/XKIT/xh018/cadence/v10_0/spectre/v10_0_2/lpmos/models/mos/pmma_bjt.scs
Reading file:  /opt/pdk/xfab/XKIT/xh018/cadence/v10_0/spectre/v10_0_2/lpmos/models/mos/nedi.scs
Reading file:  /opt/pdk/xfab/XKIT/xh018/cadence/v10_0/spectre/v10_0_2/lpmos/models/mos/nedi_bjt.scs
Reading file:  /opt/pdk/xfab/XKIT/xh018/cadence/v10_0/spectre/v10_0_2/lpmos/models/mos/nedia.scs
Reading file:  /opt/pdk/xfab/XKIT/xh018/cadence/v10_0/spectre/v10_0_2/lpmos/models/mos/nedia_bjt.scs
Reading file:  /opt/pdk/xfab/XKIT/xh018/cadence/v10_0/spectre/v10_0_2/lpmos/models/mos/ped2.scs
Reading file:  /opt/pdk/xfab/XKIT/xh018/cadence/v10_0/spectre/v10_0_2/lpmos/models/mos/ped2_bjt.scs
Reading file:  /opt/pdk/xfab/XKIT/xh018/cadence/v10_0/spectre/v10_0_2/lpmos/models/mos/ped.scs
Reading file:  /opt/pdk/xfab/XKIT/xh018/cadence/v10_0/spectre/v10_0_2/lpmos/models/mos/ped_bjt.scs
Reading file:  /opt/pdk/xfab/XKIT/xh018/cadence/v10_0/spectre/v10_0_2/lpmos/models/mos/nhv.scs
Reading file:  /opt/pdk/xfab/XKIT/xh018/cadence/v10_0/spectre/v10_0_2/lpmos/models/mos/nhv_mos2.scs
Reading file:  /opt/pdk/xfab/XKIT/xh018/cadence/v10_0/spectre/v10_0_2/lpmos/models/mos/nhv_bjt.scs
Reading file:  /opt/pdk/xfab/XKIT/xh018/cadence/v10_0/spectre/v10_0_2/lpmos/models/mos/nhhv.scs
Reading file:  /opt/pdk/xfab/XKIT/xh018/cadence/v10_0/spectre/v10_0_2/lpmos/models/mos/nhhv_mos2.scs
Reading file:  /opt/pdk/xfab/XKIT/xh018/cadence/v10_0/spectre/v10_0_2/lpmos/models/mos/nhhv_bjt.scs
Reading file:  /opt/pdk/xfab/XKIT/xh018/cadence/v10_0/spectre/v10_0_2/lpmos/models/mos/nmmc.scs
Reading file:  /opt/pdk/xfab/XKIT/xh018/cadence/v10_0/spectre/v10_0_2/lpmos/models/mos/nmmc_mos2.scs
Reading file:  /opt/pdk/xfab/XKIT/xh018/cadence/v10_0/spectre/v10_0_2/lpmos/models/mos/nmmc_bjt.scs
Reading file:  /opt/pdk/xfab/XKIT/xh018/cadence/v10_0/spectre/v10_0_2/lpmos/models/mos/nmmd.scs
Reading file:  /opt/pdk/xfab/XKIT/xh018/cadence/v10_0/spectre/v10_0_2/lpmos/models/mos/nmmd_mos2.scs
Reading file:  /opt/pdk/xfab/XKIT/xh018/cadence/v10_0/spectre/v10_0_2/lpmos/models/mos/nmmd_bjt.scs
Reading file:  /opt/pdk/xfab/XKIT/xh018/cadence/v10_0/spectre/v10_0_2/lpmos/models/mos/nmc.scs
Reading file:  /opt/pdk/xfab/XKIT/xh018/cadence/v10_0/spectre/v10_0_2/lpmos/models/mos/nmc_mos2.scs
Reading file:  /opt/pdk/xfab/XKIT/xh018/cadence/v10_0/spectre/v10_0_2/lpmos/models/mos/nmc_bjt.scs
Reading file:  /opt/pdk/xfab/XKIT/xh018/cadence/v10_0/spectre/v10_0_2/lpmos/models/mos/nma.scs
Reading file:  /opt/pdk/xfab/XKIT/xh018/cadence/v10_0/spectre/v10_0_2/lpmos/models/mos/nma_bjt.scs
Reading file:  /opt/pdk/xfab/XKIT/xh018/cadence/v10_0/spectre/v10_0_2/lpmos/models/mos/phv.scs
Reading file:  /opt/pdk/xfab/XKIT/xh018/cadence/v10_0/spectre/v10_0_2/lpmos/models/mos/phv_mos2.scs
Reading file:  /opt/pdk/xfab/XKIT/xh018/cadence/v10_0/spectre/v10_0_2/lpmos/models/mos/phv_bjt.scs
Reading file:  /opt/pdk/xfab/XKIT/xh018/cadence/v10_0/spectre/v10_0_2/lpmos/models/mos/phhv.scs
Reading file:  /opt/pdk/xfab/XKIT/xh018/cadence/v10_0/spectre/v10_0_2/lpmos/models/mos/phhv_mos2.scs
Reading file:  /opt/pdk/xfab/XKIT/xh018/cadence/v10_0/spectre/v10_0_2/lpmos/models/mos/phhv_bjt.scs
Reading file:  /opt/pdk/xfab/XKIT/xh018/cadence/v10_0/spectre/v10_0_2/lpmos/models/mos/pmc.scs
Reading file:  /opt/pdk/xfab/XKIT/xh018/cadence/v10_0/spectre/v10_0_2/lpmos/models/mos/pmc_mos2.scs
Reading file:  /opt/pdk/xfab/XKIT/xh018/cadence/v10_0/spectre/v10_0_2/lpmos/models/mos/pmc_bjt.scs
Reading file:  /opt/pdk/xfab/XKIT/xh018/cadence/v10_0/spectre/v10_0_2/lpmos/models/mos/pmmc.scs
Reading file:  /opt/pdk/xfab/XKIT/xh018/cadence/v10_0/spectre/v10_0_2/lpmos/models/mos/pmmc_mos2.scs
Reading file:  /opt/pdk/xfab/XKIT/xh018/cadence/v10_0/spectre/v10_0_2/lpmos/models/mos/pmmc_bjt.scs
Reading file:  /opt/pdk/xfab/XKIT/xh018/cadence/v10_0/spectre/v10_0_2/lpmos/models/mos/pma.scs
Reading file:  /opt/pdk/xfab/XKIT/xh018/cadence/v10_0/spectre/v10_0_2/lpmos/models/mos/pma_bjt.scs
Reading file:  /opt/pdk/xfab/XKIT/xh018/cadence/v10_0/spectre/v10_0_2/lpmos/models/mos/pmb.scs
Reading file:  /opt/pdk/xfab/XKIT/xh018/cadence/v10_0/spectre/v10_0_2/lpmos/models/mos/nesvt.scs
Reading file:  /opt/pdk/xfab/XKIT/xh018/cadence/v10_0/spectre/v10_0_2/lpmos/models/mos/nesvti.scs
Reading file:  /opt/pdk/xfab/XKIT/xh018/cadence/v10_0/spectre/v10_0_2/lpmos/models/mos/nesvti_6.scs
Reading file:  /opt/pdk/xfab/XKIT/xh018/cadence/v10_0/spectre/v10_0_2/lpmos/models/mos/nesvti_m_6.scs
Reading file:  /opt/pdk/xfab/XKIT/xh018/cadence/v10_0/spectre/v10_0_2/lpmos/models/mos/pesvt.scs
Reading file:  /opt/pdk/xfab/XKIT/xh018/cadence/v10_0/spectre/v10_0_2/lpmos/models/mos/pesvt_5.scs
Reading file:  /opt/pdk/xfab/XKIT/xh018/cadence/v10_0/spectre/v10_0_2/lpmos/models/mos/pesvti.scs
Reading file:  /opt/pdk/xfab/XKIT/xh018/cadence/v10_0/spectre/v10_0_2/lpmos/models/mos/pesvti_5.scs
Reading file:  /opt/pdk/xfab/XKIT/xh018/cadence/v10_0/spectre/v10_0_2/lpmos/models/mos/pesvti_m_5.scs
Reading file:  /opt/pdk/xfab/XKIT/xh018/cadence/v10_0/spectre/v10_0_2/lpmos/models/mos/nhvd.scs
Reading file:  /opt/pdk/xfab/XKIT/xh018/cadence/v10_0/spectre/v10_0_2/lpmos/models/mos/nhvd_bjt.scs
Reading file:  /opt/pdk/xfab/XKIT/xh018/cadence/v10_0/spectre/v10_0_2/lpmos/models/mos/nhhvd.scs
Reading file:  /opt/pdk/xfab/XKIT/xh018/cadence/v10_0/spectre/v10_0_2/lpmos/models/mos/nhhvd_bjt.scs
Reading file:  /opt/pdk/xfab/XKIT/xh018/cadence/v10_0/spectre/v10_0_2/lpmos/photo.scs
Reading file:  /opt/pdk/xfab/XKIT/xh018/cadence/v10_0/spectre/v10_0_2/lpmos/models/photo/tm_pho.scs
Reading file:  /opt/pdk/xfab/XKIT/xh018/cadence/v10_0/spectre/v10_0_2/lpmos/models/photo/dphoa.scs
Reading file:  /opt/pdk/xfab/XKIT/xh018/cadence/v10_0/spectre/v10_0_2/lpmos/models/photo/dpho.va
Reading link:  /opt/tools/cadence/installs/SPECTRE241/tools.lnx86/spectre/etc/ahdl/constants.h
Reading file:  /opt/tools/cadence/installs/SPECTRE241/tools.lnx86/spectre/etc/ahdl/constants.vams
Reading link:  /opt/tools/cadence/installs/SPECTRE241/tools.lnx86/spectre/etc/ahdl/discipline.h
Reading file:  /opt/tools/cadence/installs/SPECTRE241/tools.lnx86/spectre/etc/ahdl/disciplines.vams
Reading file:  /opt/pdk/xfab/XKIT/xh018/cadence/v10_0/spectre/v10_0_2/lpmos/models/photo/dphob.scs
Reading file:  /opt/pdk/xfab/XKIT/xh018/cadence/v10_0/spectre/v10_0_2/lpmos/models/photo/dphoc.scs
Reading file:  /opt/pdk/xfab/XKIT/xh018/cadence/v10_0/spectre/v10_0_2/lpmos/models/photo/iphoto_uv.va
Reading file:  /opt/pdk/xfab/XKIT/xh018/cadence/v10_0/spectre/v10_0_2/lpmos/models/photo/dphoc_cat.scs
Reading file:  /opt/pdk/xfab/XKIT/xh018/cadence/v10_0/spectre/v10_0_2/lpmos/models/photo/dphoc0.scs
Reading file:  /opt/pdk/xfab/XKIT/xh018/cadence/v10_0/spectre/v10_0_2/lpmos/models/photo/dphoc0_cat.scs
Reading file:  /opt/pdk/xfab/XKIT/xh018/cadence/v10_0/spectre/v10_0_2/lpmos/models/photo/dphocfp.scs
Reading file:  /opt/pdk/xfab/XKIT/xh018/cadence/v10_0/spectre/v10_0_2/lpmos/models/photo/dphocfp_cat.scs
Reading file:  /opt/pdk/xfab/XKIT/xh018/cadence/v10_0/spectre/v10_0_2/lpmos/models/photo/dphod.scs
Reading file:  /opt/pdk/xfab/XKIT/xh018/cadence/v10_0/spectre/v10_0_2/lpmos/models/photo/dphod_an1.scs
Reading file:  /opt/pdk/xfab/XKIT/xh018/cadence/v10_0/spectre/v10_0_2/lpmos/models/photo/dphod_an2.scs
Reading file:  /opt/pdk/xfab/XKIT/xh018/cadence/v10_0/spectre/v10_0_2/lpmos/models/photo/dphod0.scs
Reading file:  /opt/pdk/xfab/XKIT/xh018/cadence/v10_0/spectre/v10_0_2/lpmos/models/photo/dphod0_an1.scs
Reading file:  /opt/pdk/xfab/XKIT/xh018/cadence/v10_0/spectre/v10_0_2/lpmos/models/photo/dphod0_an2.scs
Reading file:  /opt/pdk/xfab/XKIT/xh018/cadence/v10_0/spectre/v10_0_2/lpmos/models/photo/dphodfp.scs
Reading file:  /opt/pdk/xfab/XKIT/xh018/cadence/v10_0/spectre/v10_0_2/lpmos/models/photo/dphodfp_an1.scs
Reading file:  /opt/pdk/xfab/XKIT/xh018/cadence/v10_0/spectre/v10_0_2/lpmos/models/photo/dphodfp_an2.scs
Reading file:  /opt/pdk/xfab/XKIT/xh018/cadence/v10_0/spectre/v10_0_2/lpmos/models/photo/dspada0.scs
Reading file:  /opt/pdk/xfab/XKIT/xh018/cadence/v10_0/spectre/v10_0_2/lpmos/models/photo/ispad.va
Reading file:  /opt/pdk/xfab/XKIT/xh018/cadence/v10_0/spectre/v10_0_2/lpmos/models/photo/dapb.scs
Reading file:  /opt/pdk/xfab/XKIT/xh018/cadence/v10_0/spectre/v10_0_2/lpmos/models/photo/iphoto_apd_trig.va
Reading file:  /opt/pdk/xfab/XKIT/xh018/cadence/v10_0/spectre/v10_0_2/lpmos/models/photo/dapb_jun.scs
Reading file:  /opt/pdk/xfab/XKIT/xh018/cadence/v10_0/spectre/v10_0_2/lpmos/models/photo/dapb_trig.scs
Reading file:  /opt/pdk/xfab/XKIT/xh018/cadence/v10_0/spectre/v10_0_2/lpmos/models/photo/dapb0.scs
Reading file:  /opt/pdk/xfab/XKIT/xh018/cadence/v10_0/spectre/v10_0_2/lpmos/models/photo/dapb0_jun.scs
Reading file:  /opt/pdk/xfab/XKIT/xh018/cadence/v10_0/spectre/v10_0_2/lpmos/models/photo/dspb.scs
Reading file:  /opt/pdk/xfab/XKIT/xh018/cadence/v10_0/spectre/v10_0_2/lpmos/models/photo/ispad_trig.va
Reading file:  /opt/pdk/xfab/XKIT/xh018/cadence/v10_0/spectre/v10_0_2/lpmos/models/photo/dspb_jun.scs
Reading file:  /opt/pdk/xfab/XKIT/xh018/cadence/v10_0/spectre/v10_0_2/lpmos/models/photo/dspb_trig.scs
Reading file:  /opt/pdk/xfab/XKIT/xh018/cadence/v10_0/spectre/v10_0_2/lpmos/models/photo/dspb0.scs
Reading file:  /opt/pdk/xfab/XKIT/xh018/cadence/v10_0/spectre/v10_0_2/lpmos/models/photo/dspb0_jun.scs
Reading file:  /opt/pdk/xfab/XKIT/xh018/cadence/v10_0/spectre/v10_0_2/lpmos/models/photo/dspbfep.scs
Reading file:  /opt/pdk/xfab/XKIT/xh018/cadence/v10_0/spectre/v10_0_2/lpmos/models/photo/dapda.scs
Reading file:  /opt/pdk/xfab/XKIT/xh018/cadence/v10_0/spectre/v10_0_2/lpmos/models/photo/iphoto_apd.va
Reading file:  /opt/pdk/xfab/XKIT/xh018/cadence/v10_0/spectre/v10_0_2/lpmos/models/photo/dapda_cat.scs
Reading file:  /opt/pdk/xfab/XKIT/xh018/cadence/v10_0/spectre/v10_0_2/lpmos/models/photo/dapda0.scs
Reading file:  /opt/pdk/xfab/XKIT/xh018/cadence/v10_0/spectre/v10_0_2/lpmos/models/photo/dspada.scs
Reading file:  /opt/pdk/xfab/XKIT/xh018/cadence/v10_0/spectre/v10_0_2/lpmos/models/photo/dspada_cat.scs
Reading file:  /opt/pdk/xfab/XKIT/xh018/cadence/v10_0/spectre/v10_0_2/lpmos/res.scs
Reading file:  /opt/pdk/xfab/XKIT/xh018/cadence/v10_0/spectre/v10_0_2/lpmos/models/res/tm_res.scs
Reading file:  /opt/pdk/xfab/XKIT/xh018/cadence/v10_0/spectre/v10_0_2/lpmos/models/res/rdn.scs
Reading file:  /opt/pdk/xfab/XKIT/xh018/cadence/v10_0/spectre/v10_0_2/lpmos/models/res/rdn_esd.scs
Reading file:  /opt/pdk/xfab/XKIT/xh018/cadence/v10_0/spectre/v10_0_2/lpmos/models/res/rdp.scs
Reading file:  /opt/pdk/xfab/XKIT/xh018/cadence/v10_0/spectre/v10_0_2/lpmos/models/res/rdp_io.scs
Reading file:  /opt/pdk/xfab/XKIT/xh018/cadence/v10_0/spectre/v10_0_2/lpmos/models/res/rdp_esd.scs
Reading file:  /opt/pdk/xfab/XKIT/xh018/cadence/v10_0/spectre/v10_0_2/lpmos/models/res/rnw.scs
Reading file:  /opt/pdk/xfab/XKIT/xh018/cadence/v10_0/spectre/v10_0_2/lpmos/models/res/rnw_scr.scs
Reading file:  /opt/pdk/xfab/XKIT/xh018/cadence/v10_0/spectre/v10_0_2/lpmos/models/res/rdn3.scs
Reading file:  /opt/pdk/xfab/XKIT/xh018/cadence/v10_0/spectre/v10_0_2/lpmos/models/res/rdp3.scs
Reading file:  /opt/pdk/xfab/XKIT/xh018/cadence/v10_0/spectre/v10_0_2/lpmos/models/res/rnw3.scs
Reading file:  /opt/pdk/xfab/XKIT/xh018/cadence/v10_0/spectre/v10_0_2/lpmos/models/res/rnw3_scr.scs
Reading file:  /opt/pdk/xfab/XKIT/xh018/cadence/v10_0/spectre/v10_0_2/lpmos/models/res/rdnwmv.scs
Reading file:  /opt/pdk/xfab/XKIT/xh018/cadence/v10_0/spectre/v10_0_2/lpmos/models/res/rnp1.scs
Reading file:  /opt/pdk/xfab/XKIT/xh018/cadence/v10_0/spectre/v10_0_2/lpmos/models/res/rnp1_3.scs
Reading file:  /opt/pdk/xfab/XKIT/xh018/cadence/v10_0/spectre/v10_0_2/lpmos/models/res/rpp1.scs
Reading file:  /opt/pdk/xfab/XKIT/xh018/cadence/v10_0/spectre/v10_0_2/lpmos/models/res/rpp1_3.scs
Reading file:  /opt/pdk/xfab/XKIT/xh018/cadence/v10_0/spectre/v10_0_2/lpmos/models/res/rpp1s.scs
Reading file:  /opt/pdk/xfab/XKIT/xh018/cadence/v10_0/spectre/v10_0_2/lpmos/models/res/rpp1s_3.scs
Reading file:  /opt/pdk/xfab/XKIT/xh018/cadence/v10_0/spectre/v10_0_2/lpmos/models/res/rnp1h.scs
Reading file:  /opt/pdk/xfab/XKIT/xh018/cadence/v10_0/spectre/v10_0_2/lpmos/models/res/rnp1h_3.scs
Reading file:  /opt/pdk/xfab/XKIT/xh018/cadence/v10_0/spectre/v10_0_2/lpmos/models/res/rpp1k1.scs
Reading file:  /opt/pdk/xfab/XKIT/xh018/cadence/v10_0/spectre/v10_0_2/lpmos/models/res/rpp1k1_3.scs
Reading file:  /opt/pdk/xfab/XKIT/xh018/cadence/v10_0/spectre/v10_0_2/lpmos/models/res/rctdn.scs
Reading file:  /opt/pdk/xfab/XKIT/xh018/cadence/v10_0/spectre/v10_0_2/lpmos/models/res/rctdp.scs
Reading file:  /opt/pdk/xfab/XKIT/xh018/cadence/v10_0/spectre/v10_0_2/lpmos/models/res/rctp1.scs
Reading file:  /opt/pdk/xfab/XKIT/xh018/cadence/v10_0/spectre/v10_0_2/lpmos/models/res/rsildn.scs
Reading file:  /opt/pdk/xfab/XKIT/xh018/cadence/v10_0/spectre/v10_0_2/lpmos/models/res/rsildp.scs
Reading file:  /opt/pdk/xfab/XKIT/xh018/cadence/v10_0/spectre/v10_0_2/lpmos/models/res/rsilnp1.scs
Reading file:  /opt/pdk/xfab/XKIT/xh018/cadence/v10_0/spectre/v10_0_2/lpmos/models/res/rsilpp1.scs
Reading file:  /opt/pdk/xfab/XKIT/xh018/cadence/v10_0/spectre/v10_0_2/lpmos/models/res/rsbdn.scs
Reading file:  /opt/pdk/xfab/XKIT/xh018/cadence/v10_0/spectre/v10_0_2/lpmos/models/res/rsbdp.scs
Reading file:  /opt/pdk/xfab/XKIT/xh018/cadence/v10_0/spectre/v10_0_2/lpmos/models/res/rsbdn3.scs
Reading file:  /opt/pdk/xfab/XKIT/xh018/cadence/v10_0/spectre/v10_0_2/lpmos/models/res/rsbdp3.scs
Reading file:  /opt/pdk/xfab/XKIT/xh018/cadence/v10_0/spectre/v10_0_2/lpmos/models/res/rsbnp1.scs
Reading file:  /opt/pdk/xfab/XKIT/xh018/cadence/v10_0/spectre/v10_0_2/lpmos/models/res/rsbpp1.scs
Reading file:  /opt/pdk/xfab/XKIT/xh018/cadence/v10_0/spectre/v10_0_2/lpmos/models/res/rsbpp1k1.scs
Reading file:  /opt/pdk/xfab/XKIT/xh018/cadence/v10_0/spectre/v10_0_2/lpmos/models/res/rm1.scs
Reading file:  /opt/pdk/xfab/XKIT/xh018/cadence/v10_0/spectre/v10_0_2/lpmos/models/res/rm2.scs
Reading file:  /opt/pdk/xfab/XKIT/xh018/cadence/v10_0/spectre/v10_0_2/lpmos/models/res/rm3.scs
Reading file:  /opt/pdk/xfab/XKIT/xh018/cadence/v10_0/spectre/v10_0_2/lpmos/models/res/rm4.scs
Reading file:  /opt/pdk/xfab/XKIT/xh018/cadence/v10_0/spectre/v10_0_2/lpmos/models/res/rm5.scs
Reading file:  /opt/pdk/xfab/XKIT/xh018/cadence/v10_0/spectre/v10_0_2/lpmos/models/res/rmtp.scs
Reading file:  /opt/pdk/xfab/XKIT/xh018/cadence/v10_0/spectre/v10_0_2/lpmos/models/res/rmtpl.scs
Reading file:  /opt/pdk/xfab/XKIT/xh018/cadence/v10_0/spectre/v10_0_2/lpmos/models/res/pfuse.scs
Reading file:  /opt/pdk/xfab/XKIT/xh018/cadence/v10_0/spectre/v10_0_2/lpmos/models/res/s_res.scs
Time for NDB Parsing: CPU = 192.692 ms, elapsed = 550.027 ms.
Time accumulated: CPU = 351.769 ms, elapsed = 550.028 ms.
Peak resident memory used = 196 Mbytes.

Time for Elaboration: CPU = 16.472 ms, elapsed = 19.474 ms.
Time accumulated: CPU = 368.366 ms, elapsed = 569.663 ms.
Peak resident memory used = 205 Mbytes.


Notice from spectre during hierarchy flattening.
    The value 'psf' specified for the 'checklimitdest' option will no longer be supported in future releases. Use 'spectre -h' to see other recommended values for the 'checklimitdest' option.


Time for EDB Visiting: CPU = 935 us, elapsed = 1.17183 ms.
Time accumulated: CPU = 369.41 ms, elapsed = 571.003 ms.
Peak resident memory used = 206 Mbytes.


Notice from spectre during initial setup.
    Multithreading is disabled due to the size of the design being too small.


Netlist title:
        // Point Netlist Generated on: Nov 13 09:56:31 2025


Global user options:
         psfversion = 1.4.0
            vabstol = 1e-06
            iabstol = 1e-12
               temp = 27
               gmin = 1e-12
             rforce = 1
           maxnotes = 5
           maxwarns = 5
             digits = 5
               cols = 80
             pivrel = 0.001
           sensfile = ../psf/sens.output
     checklimitdest = psf
               save = allpub
             reltol = 0.001
               tnom = 27
             scalem = 1
              scale = 1

Scoped user options:

Circuit inventory:
              nodes 4
          capacitor 18    
            isource 2     
           resistor 5     
               vccs 3     

Analysis and control statement inventory:
               info 6     
                 pz 1     

Output statements:
             .probe 0     
           .measure 0     
               save 0     


Notice from spectre during initial setup.
    APS enabled.

Time for parsing: CPU = 2.343 ms, elapsed = 16.83 ms.
Time accumulated: CPU = 371.846 ms, elapsed = 587.974 ms.
Peak resident memory used = 209 Mbytes.

~~~~~~~~~~~~~~~~~~~~~~
Pre-Simulation Summary
~~~~~~~~~~~~~~~~~~~~~~
   -   (APS) Multi-threading. The recommended number of threads is 1, consider adding +mt=1 on command line.
~~~~~~~~~~~~~~~~~~~~~~

**************************************
PZ Analysis `pz': gm1 = (0 -> 227e-06)
**************************************
Convergence achieved in 2 iterations.
DC simulation time: CPU = 518 us, elapsed = 807.047 us.

Opening the PSF file ../psf/pz.pz ...

0              0.00% 
Convergence achieved in 2 iterations.
DC simulation time: CPU = 121 us, elapsed = 146.151 us.
                      Poles (Hz)

           Real                       Imaginary                 Qfactor

   1   -1.76354e+03                  0.00000e+00              5.00000e-01 
   2   -1.77347e+04                  0.00000e+00              5.00000e-01 
   3   -9.00641e+05                  0.00000e+00              5.00000e-01 
   4   -2.49568e+07                  0.00000e+00              5.00000e-01 

                      Zeros (Hz)
                      at V(VOUT,0)/I5

           Real                       Imaginary                 Qfactor

   1    1.08151e+02                  0.00000e+00              -5.00000e-01
   2   -3.24966e+04                  0.00000e+00              5.00000e-01 
   3    3.68961e+08                  0.00000e+00              -5.00000e-01

Constant factor =  5.25867e+10

DC gain =  1.54381e+04


4.54e-06       2.00% 
Convergence achieved in 2 iterations.
DC simulation time: CPU = 108 us, elapsed = 128.031 us.
                      Poles (Hz)

           Real                       Imaginary                 Qfactor

   1   -3.93284e+05              +/- 7.78775e+05              1.10918e+00 
   2   -1.57859e+06                  0.00000e+00              5.00000e-01 
   3   -2.46375e+07                  0.00000e+00              5.00000e-01 

                      Zeros (Hz)
                      at V(VOUT,0)/I5

           Real                       Imaginary                 Qfactor

   1   -2.58697e+06                  0.00000e+00              5.00000e-01 
   2   -3.65915e+06                  0.00000e+00              5.00000e-01 
   3    3.72672e+08                  0.00000e+00              -5.00000e-01

Constant factor =  5.25867e+10

DC gain =  9.97360e+05

.
9.08e-06       4.00% 
Convergence achieved in 2 iterations.
DC simulation time: CPU = 118 us, elapsed = 143.051 us.
                      Poles (Hz)

           Real                       Imaginary                 Qfactor

   1   -4.26140e+05              +/- 1.19905e+06              1.49308e+00 
   2   -2.99384e+06                  0.00000e+00              5.00000e-01 
   3   -2.42823e+07                  0.00000e+00              5.00000e-01 

                      Zeros (Hz)
                      at V(VOUT,0)/I5

           Real                       Imaginary                 Qfactor

   1   -5.20720e+06                  0.00000e+00              5.00000e-01 
   2   -7.16872e+06                  0.00000e+00              5.00000e-01 
   3    3.76299e+08                  0.00000e+00              -5.00000e-01

Constant factor =  5.25867e+10

DC gain =  9.98678e+05

...
13.62e-06      6.00% 
Convergence achieved in 2 iterations.
DC simulation time: CPU = 61 us, elapsed = 78.2013 us.
                      Poles (Hz)

           Real                       Imaginary                 Qfactor

   1   -4.54450e+05              +/- 1.50770e+06              1.73254e+00 
   2   -4.46401e+06                  0.00000e+00              5.00000e-01 
   3   -2.38812e+07                  0.00000e+00              5.00000e-01 

                      Zeros (Hz)
                      at V(VOUT,0)/I5

           Real                       Imaginary                 Qfactor

   1   -7.86922e+06                  0.00000e+00              5.00000e-01 
   2   -1.05575e+07                  0.00000e+00              5.00000e-01 
   3    3.79847e+08                  0.00000e+00              -5.00000e-01

Constant factor =  5.25867e+10

DC gain =  9.99119e+05

....
18.16e-06      8.00% 
Convergence achieved in 2 iterations.
DC simulation time: CPU = 52 us, elapsed = 68.903 us.
                      Poles (Hz)

           Real                       Imaginary                 Qfactor

   1   -4.81963e+05              +/- 1.76378e+06              1.89687e+00 
   2   -5.99634e+06                  0.00000e+00              5.00000e-01 
   3   -2.34196e+07                  0.00000e+00              5.00000e-01 

                      Zeros (Hz)
                      at V(VOUT,0)/I5

           Real                       Imaginary                 Qfactor

   1   -1.05802e+07                  0.00000e+00              5.00000e-01 
   2   -1.38227e+07                  0.00000e+00              5.00000e-01 
   3    3.83320e+08                  0.00000e+00              -5.00000e-01

Constant factor =  5.25867e+10

DC gain =  9.99339e+05

......
22.7e-06      10.00% 
Convergence achieved in 2 iterations.
DC simulation time: CPU = 52 us, elapsed = 70.0951 us.
                      Poles (Hz)

           Real                       Imaginary                 Qfactor

   1   -5.09231e+05              +/- 1.98762e+06              2.01462e+00 
   2   -7.61343e+06                  0.00000e+00              5.00000e-01 
   3   -2.28737e+07                  0.00000e+00              5.00000e-01 

                      Zeros (Hz)
                      at V(VOUT,0)/I5

           Real                       Imaginary                 Qfactor

   1   -1.33502e+07                  0.00000e+00              5.00000e-01 
   2   -1.69582e+07                  0.00000e+00              5.00000e-01 
   3    3.86723e+08                  0.00000e+00              -5.00000e-01

Constant factor =  5.25867e+10

DC gain =  9.99471e+05

......9
27.24e-06     12.00% 
Convergence achieved in 2 iterations.
DC simulation time: CPU = 62 us, elapsed = 87.0228 us.
                      Poles (Hz)

           Real                       Imaginary                 Qfactor

   1   -5.36411e+05              +/- 2.18910e+06              2.10087e+00 
   2   -9.35736e+06                  0.00000e+00              5.00000e-01 
   3   -2.22012e+07                  0.00000e+00              5.00000e-01 

                      Zeros (Hz)
                      at V(VOUT,0)/I5

           Real                       Imaginary                 Qfactor

   1   -1.61947e+07                  0.00000e+00              5.00000e-01 
   2   -1.99524e+07                  0.00000e+00              5.00000e-01 
   3    3.90058e+08                  0.00000e+00              -5.00000e-01

Constant factor =  5.25867e+10

DC gain =  9.99559e+05

......9.
31.78e-06     14.00% 
Convergence achieved in 2 iterations.
DC simulation time: CPU = 89 us, elapsed = 1.6458 ms.
                      Poles (Hz)

           Real                       Imaginary                 Qfactor

   1   -5.63567e+05              +/- 2.37392e+06              2.16469e+00 
   2   -1.13191e+07                  0.00000e+00              5.00000e-01 
   3   -2.13109e+07                  0.00000e+00              5.00000e-01 

                      Zeros (Hz)
                      at V(VOUT,0)/I5

           Real                       Imaginary                 Qfactor

   1   -1.91401e+07                  0.00000e+00              5.00000e-01 
   2   -2.27821e+07                  0.00000e+00              5.00000e-01 
   3    3.93331e+08                  0.00000e+00              -5.00000e-01

Constant factor =  5.25867e+10

DC gain =  9.99622e+05

......9...
36.32e-06     16.00% 
Convergence achieved in 2 iterations.
DC simulation time: CPU = 71 us, elapsed = 86.0691 us.
                      Poles (Hz)

           Real                       Imaginary                 Qfactor

   1   -5.90728e+05              +/- 2.54571e+06              2.21197e+00 
   2   -1.37888e+07                  0.00000e+00              5.00000e-01 
   3   -1.99126e+07                  0.00000e+00              5.00000e-01 

                      Zeros (Hz)
                      at V(VOUT,0)/I5

           Real                       Imaginary                 Qfactor

   1   -2.22416e+07                  0.00000e+00              5.00000e-01 
   2   -2.53953e+07                  0.00000e+00              5.00000e-01 
   3    3.96543e+08                  0.00000e+00              -5.00000e-01

Constant factor =  5.25867e+10

DC gain =  9.99669e+05

......9....
40.86e-06     18.00% 
Convergence achieved in 2 iterations.
DC simulation time: CPU = 83 us, elapsed = 128.031 us.
                      Poles (Hz)

           Real                       Imaginary                 Qfactor

   1   -6.17909e+05              +/- 2.70694e+06              2.24675e+00 
   2   -1.73864e+07              +/- 2.34738e+06              5.04537e-01 

                      Zeros (Hz)
                      at V(VOUT,0)/I5

           Real                       Imaginary                 Qfactor

   1   -2.56836e+07                  0.00000e+00              5.00000e-01 
   2   -2.76104e+07                  0.00000e+00              5.00000e-01 
   3    3.99697e+08                  0.00000e+00              -5.00000e-01

Constant factor =  5.25867e+10

DC gain =  9.99706e+05

......9......
45.4e-06      20.00% 
Convergence achieved in 2 iterations.
DC simulation time: CPU = 109 us, elapsed = 127.077 us.
                      Poles (Hz)

           Real                       Imaginary                 Qfactor

   1   -6.45118e+05              +/- 2.85942e+06              2.27190e+00 
   2   -1.79220e+07              +/- 4.43816e+06              5.15103e-01 

                      Zeros (Hz)
                      at V(VOUT,0)/I5

           Real                       Imaginary                 Qfactor

   1   -2.94480e+07              +/- 1.20910e+06              5.00421e-01 
   2    4.02796e+08                  0.00000e+00              -5.00000e-01

Constant factor =  5.25867e+10

DC gain =  9.99735e+05

......9......8
49.94e-06     22.00% 
Convergence achieved in 2 iterations.
DC simulation time: CPU = 74 us, elapsed = 87.9765 us.
                      Poles (Hz)

           Real                       Imaginary                 Qfactor

   1   -6.72363e+05              +/- 3.00446e+06              2.28952e+00 
   2   -1.84577e+07              +/- 5.76069e+06              5.23786e-01 

                      Zeros (Hz)
                      at V(VOUT,0)/I5

           Real                       Imaginary                 Qfactor

   1   -3.22228e+07              +/- 2.18569e+06              5.01149e-01 
   2    4.05843e+08                  0.00000e+00              -5.00000e-01

Constant factor =  5.25867e+10

DC gain =  9.99759e+05

......9......8.
54.48e-06     24.00% 
Convergence achieved in 2 iterations.
DC simulation time: CPU = 63 us, elapsed = 77.0092 us.
                      Poles (Hz)

           Real                       Imaginary                 Qfactor

   1   -6.99647e+05              +/- 3.14311e+06              2.30119e+00 
   2   -1.89933e+07              +/- 6.78046e+06              5.30906e-01 

                      Zeros (Hz)
                      at V(VOUT,0)/I5

           Real                       Imaginary                 Qfactor

   1   -3.49725e+07              +/- 3.01711e+06              5.01857e-01 
   2    4.08839e+08                  0.00000e+00              -5.00000e-01

Constant factor =  5.25867e+10

DC gain =  9.99779e+05

......9......8...
59.02e-06     26.00% 
Convergence achieved in 2 iterations.
DC simulation time: CPU = 70 us, elapsed = 1.70708 ms.
                      Poles (Hz)

           Real                       Imaginary                 Qfactor

   1   -7.26971e+05              +/- 3.27618e+06              2.30812e+00 
   2   -1.95288e+07              +/- 7.62000e+06              5.36715e-01 

                      Zeros (Hz)
                      at V(VOUT,0)/I5

           Real                       Imaginary                 Qfactor

   1   -3.76980e+07              +/- 3.81008e+06              5.02547e-01 
   2    4.11787e+08                  0.00000e+00              -5.00000e-01

Constant factor =  5.25867e+10

DC gain =  9.99796e+05

......9......8....
63.56e-06     28.00% 
Convergence achieved in 2 iterations.
DC simulation time: CPU = 83 us, elapsed = 2.13981 ms.
                      Poles (Hz)

           Real                       Imaginary                 Qfactor

   1   -7.54338e+05              +/- 3.40432e+06              2.31123e+00 
   2   -2.00643e+07              +/- 8.33394e+06              5.41416e-01 

                      Zeros (Hz)
                      at V(VOUT,0)/I5

           Real                       Imaginary                 Qfactor

   1   -4.04005e+07              +/- 4.59232e+06              5.03220e-01 
   2    4.14689e+08                  0.00000e+00              -5.00000e-01

Constant factor =  5.25867e+10

DC gain =  9.99811e+05

......9......8......
68.1e-06      30.00% 
Convergence achieved in 2 iterations.
DC simulation time: CPU = 79 us, elapsed = 1.49703 ms.
                      Poles (Hz)

           Real                       Imaginary                 Qfactor

   1   -7.81749e+05              +/- 3.52808e+06              2.31126e+00 
   2   -2.05998e+07              +/- 8.95237e+06              5.45175e-01 

                      Zeros (Hz)
                      at V(VOUT,0)/I5

           Real                       Imaginary                 Qfactor

   1   -4.30807e+07              +/- 5.37457e+06              5.03876e-01 
   2    4.17547e+08                  0.00000e+00              -5.00000e-01

Constant factor =  5.25867e+10

DC gain =  9.99824e+05

......9......8......7
72.64e-06     32.00% 
Convergence achieved in 2 iterations.
DC simulation time: CPU = 85 us, elapsed = 105.858 us.
                      Poles (Hz)

           Real                       Imaginary                 Qfactor

   1   -8.09206e+05              +/- 3.64791e+06              2.30880e+00 
   2   -2.11352e+07              +/- 9.49397e+06              5.48129e-01 

                      Zeros (Hz)
                      at V(VOUT,0)/I5

           Real                       Imaginary                 Qfactor

   1   -4.57397e+07              +/- 6.16167e+06              5.04516e-01 
   2    4.20362e+08                  0.00000e+00              -5.00000e-01

Constant factor =  5.25867e+10

DC gain =  9.99835e+05

......9......8......7.
77.18e-06     34.00% 
Convergence achieved in 2 iterations.
DC simulation time: CPU = 121 us, elapsed = 1.85108 ms.
                      Poles (Hz)

           Real                       Imaginary                 Qfactor

   1   -8.36708e+05              +/- 3.76417e+06              2.30430e+00 
   2   -2.16706e+07              +/- 9.97124e+06              5.50390e-01 

                      Zeros (Hz)
                      at V(VOUT,0)/I5

           Real                       Imaginary                 Qfactor

   1   -4.83780e+07              +/- 6.95590e+06              5.05142e-01 
   2    4.23136e+08                  0.00000e+00              -5.00000e-01

Constant factor =  5.25867e+10

DC gain =  9.99844e+05

......9......8......7...
81.72e-06     36.00% 
Convergence achieved in 2 iterations.
DC simulation time: CPU = 110 us, elapsed = 1.966 ms.
                      Poles (Hz)

           Real                       Imaginary                 Qfactor

   1   -8.64257e+05              +/- 3.87721e+06              2.29814e+00 
   2   -2.22059e+07              +/- 1.03931e+07              5.52054e-01 

                      Zeros (Hz)
                      at V(VOUT,0)/I5

           Real                       Imaginary                 Qfactor

   1   -5.09966e+07              +/- 7.75830e+06              5.05753e-01 
   2    4.25870e+08                  0.00000e+00              -5.00000e-01

Constant factor =  5.25867e+10

DC gain =  9.99853e+05

......9......8......7....
86.26e-06     38.00% 
Convergence achieved in 2 iterations.
DC simulation time: CPU = 88 us, elapsed = 98.9437 us.
                      Poles (Hz)

           Real                       Imaginary                 Qfactor

   1   -8.91853e+05              +/- 3.98728e+06              2.29063e+00 
   2   -2.27412e+07              +/- 1.07659e+07              5.53199e-01 

                      Zeros (Hz)
                      at V(VOUT,0)/I5

           Real                       Imaginary                 Qfactor

   1   -5.35961e+07              +/- 8.56930e+06              5.06351e-01 
   2    4.28566e+08                  0.00000e+00              -5.00000e-01

Constant factor =  5.25867e+10

DC gain =  9.99861e+05

......9......8......7......
90.8e-06      40.00% 
Convergence achieved in 2 iterations.
DC simulation time: CPU = 84 us, elapsed = 1.647 ms.
                      Poles (Hz)

           Real                       Imaginary                 Qfactor

   1   -9.19496e+05              +/- 4.09464e+06              2.28202e+00 
   2   -2.32764e+07              +/- 1.10948e+07              5.53895e-01 

                      Zeros (Hz)
                      at V(VOUT,0)/I5

           Real                       Imaginary                 Qfactor

   1   -5.61772e+07              +/- 9.38893e+06              5.06935e-01 
   2    4.31225e+08                  0.00000e+00              -5.00000e-01

Constant factor =  5.25867e+10

DC gain =  9.99868e+05

......9......8......7......6
95.34e-06     42.00% 
Convergence achieved in 2 iterations.
DC simulation time: CPU = 91 us, elapsed = 102.997 us.
                      Poles (Hz)

           Real                       Imaginary                 Qfactor

   1   -9.47187e+05              +/- 4.19949e+06              2.27251e+00 
   2   -2.38116e+07              +/- 1.13834e+07              5.54198e-01 

                      Zeros (Hz)
                      at V(VOUT,0)/I5

           Real                       Imaginary                 Qfactor

   1   -5.87406e+07              +/- 1.02170e+07              5.07507e-01 
   2    4.33849e+08                  0.00000e+00              -5.00000e-01

Constant factor =  5.25867e+10

DC gain =  9.99874e+05

......9......8......7......6.
99.88e-06     44.00% 
Convergence achieved in 2 iterations.
DC simulation time: CPU = 121 us, elapsed = 133.991 us.
                      Poles (Hz)

           Real                       Imaginary                 Qfactor

   1   -9.74926e+05              +/- 4.30203e+06              2.26228e+00 
   2   -2.43467e+07              +/- 1.16348e+07              5.54159e-01 

                      Zeros (Hz)
                      at V(VOUT,0)/I5

           Real                       Imaginary                 Qfactor

   1   -6.12867e+07              +/- 1.10534e+07              5.08067e-01 
   2    4.36439e+08                  0.00000e+00              -5.00000e-01

Constant factor =  5.25867e+10

DC gain =  9.99880e+05

......9......8......7......6...
104.42e-06    46.00% 
Convergence achieved in 2 iterations.
DC simulation time: CPU = 82 us, elapsed = 111.103 us.
                      Poles (Hz)

           Real                       Imaginary                 Qfactor

   1   -1.00271e+06              +/- 4.40241e+06              2.25147e+00 
   2   -2.48818e+07              +/- 1.18513e+07              5.53820e-01 

                      Zeros (Hz)
                      at V(VOUT,0)/I5

           Real                       Imaginary                 Qfactor

   1   -6.38162e+07              +/- 1.18976e+07              5.08615e-01 
   2    4.38995e+08                  0.00000e+00              -5.00000e-01

Constant factor =  5.25867e+10

DC gain =  9.99885e+05

......9......8......7......6....
108.96e-06    48.00% 
Convergence achieved in 2 iterations.
DC simulation time: CPU = 85 us, elapsed = 100.136 us.
                      Poles (Hz)

           Real                       Imaginary                 Qfactor

   1   -1.03055e+06              +/- 4.50078e+06              2.24019e+00 
   2   -2.54168e+07              +/- 1.20349e+07              5.53218e-01 

                      Zeros (Hz)
                      at V(VOUT,0)/I5

           Real                       Imaginary                 Qfactor

   1   -6.63295e+07              +/- 1.27494e+07              5.09153e-01 
   2    4.41518e+08                  0.00000e+00              -5.00000e-01

Constant factor =  5.25867e+10

DC gain =  9.99890e+05

......9......8......7......6......
113.5e-06     50.00% 
Convergence achieved in 2 iterations.
DC simulation time: CPU = 106 us, elapsed = 123.024 us.
                      Poles (Hz)

           Real                       Imaginary                 Qfactor

   1   -1.05843e+06              +/- 4.59727e+06              2.22855e+00 
   2   -2.59518e+07              +/- 1.21869e+07              5.52386e-01 

                      Zeros (Hz)
                      at V(VOUT,0)/I5

           Real                       Imaginary                 Qfactor

   1   -6.88273e+07              +/- 1.36084e+07              5.09679e-01 
   2    4.44011e+08                  0.00000e+00              -5.00000e-01

Constant factor =  5.25867e+10

DC gain =  9.99894e+05

......9......8......7......6......5
118.04e-06    52.00% 
Convergence achieved in 2 iterations.
DC simulation time: CPU = 218 us, elapsed = 231.981 us.
                      Poles (Hz)

           Real                       Imaginary                 Qfactor

   1   -1.08637e+06              +/- 4.69201e+06              2.21662e+00 
   2   -2.64867e+07              +/- 1.23086e+07              5.51351e-01 

                      Zeros (Hz)
                      at V(VOUT,0)/I5

           Real                       Imaginary                 Qfactor

   1   -7.13100e+07              +/- 1.44742e+07              5.10196e-01 
   2    4.46474e+08                  0.00000e+00              -5.00000e-01

Constant factor =  5.25867e+10

DC gain =  9.99898e+05

......9......8......7......6......5.
122.58e-06    54.00% 
Convergence achieved in 2 iterations.
DC simulation time: CPU = 69 us, elapsed = 92.0296 us.
                      Poles (Hz)

           Real                       Imaginary                 Qfactor

   1   -1.11435e+06              +/- 4.78509e+06              2.20449e+00 
   2   -2.70216e+07              +/- 1.24008e+07              5.50138e-01 

                      Zeros (Hz)
                      at V(VOUT,0)/I5

           Real                       Imaginary                 Qfactor

   1   -7.37780e+07              +/- 1.53466e+07              5.10702e-01 
   2    4.48907e+08                  0.00000e+00              -5.00000e-01

Constant factor =  5.25867e+10

DC gain =  9.99902e+05

......9......8......7......6......5...
127.12e-06    56.00% 
Convergence achieved in 2 iterations.
DC simulation time: CPU = 65 us, elapsed = 80.1086 us.
                      Poles (Hz)

           Real                       Imaginary                 Qfactor

   1   -1.14238e+06              +/- 4.87662e+06              2.19220e+00 
   2   -2.75565e+07              +/- 1.24642e+07              5.48769e-01 

                      Zeros (Hz)
                      at V(VOUT,0)/I5

           Real                       Imaginary                 Qfactor

   1   -7.62317e+07              +/- 1.62250e+07              5.11200e-01 
   2    4.51311e+08                  0.00000e+00              -5.00000e-01

Constant factor =  5.25867e+10

DC gain =  9.99905e+05

......9......8......7......6......5....
131.66e-06    58.00% 
Convergence achieved in 2 iterations.
DC simulation time: CPU = 64 us, elapsed = 78.9165 us.
                      Poles (Hz)

           Real                       Imaginary                 Qfactor

   1   -1.17046e+06              +/- 4.96669e+06              2.17980e+00 
   2   -2.80913e+07              +/- 1.24992e+07              5.47262e-01 

                      Zeros (Hz)
                      at V(VOUT,0)/I5

           Real                       Imaginary                 Qfactor

   1   -7.86717e+07              +/- 1.71094e+07              5.11688e-01 
   2    4.53688e+08                  0.00000e+00              -5.00000e-01

Constant factor =  5.25867e+10

DC gain =  9.99909e+05

......9......8......7......6......5......
136.2e-06     60.00% 
Convergence achieved in 2 iterations.
DC simulation time: CPU = 81 us, elapsed = 113.01 us.
                      Poles (Hz)

           Real                       Imaginary                 Qfactor

   1   -1.19859e+06              +/- 5.05537e+06              2.16735e+00 
   2   -2.86260e+07              +/- 1.25061e+07              5.45633e-01 

                      Zeros (Hz)
                      at V(VOUT,0)/I5

           Real                       Imaginary                 Qfactor

   1   -8.10981e+07              +/- 1.79992e+07              5.12167e-01 
   2    4.56038e+08                  0.00000e+00              -5.00000e-01

Constant factor =  5.25867e+10

DC gain =  9.99912e+05

......9......8......7......6......5......4
140.74e-06    62.00% 
Convergence achieved in 2 iterations.
DC simulation time: CPU = 81 us, elapsed = 94.1753 us.
                      Poles (Hz)

           Real                       Imaginary                 Qfactor

   1   -1.22677e+06              +/- 5.14274e+06              2.15487e+00 
   2   -2.91607e+07              +/- 1.24848e+07              5.43899e-01 

                      Zeros (Hz)
                      at V(VOUT,0)/I5

           Real                       Imaginary                 Qfactor

   1   -8.35116e+07              +/- 1.88943e+07              5.12637e-01 
   2    4.58362e+08                  0.00000e+00              -5.00000e-01

Constant factor =  5.25867e+10

DC gain =  9.99915e+05

......9......8......7......6......5......4.
145.28e-06    64.00% 
Convergence achieved in 2 iterations.
DC simulation time: CPU = 67 us, elapsed = 77.9629 us.
                      Poles (Hz)

           Real                       Imaginary                 Qfactor

   1   -1.25499e+06              +/- 5.22886e+06              2.14239e+00 
   2   -2.96953e+07              +/- 1.24353e+07              5.42071e-01 

                      Zeros (Hz)
                      at V(VOUT,0)/I5

           Real                       Imaginary                 Qfactor

   1   -8.59123e+07              +/- 1.97943e+07              5.13100e-01 
   2    4.60661e+08                  0.00000e+00              -5.00000e-01

Constant factor =  5.25867e+10

DC gain =  9.99917e+05

......9......8......7......6......5......4...
149.82e-06    66.00% 
Convergence achieved in 2 iterations.
DC simulation time: CPU = 70 us, elapsed = 82.016 us.
                      Poles (Hz)

           Real                       Imaginary                 Qfactor

   1   -1.28327e+06              +/- 5.31381e+06              2.12994e+00 
   2   -3.02299e+07              +/- 1.23572e+07              5.40161e-01 

                      Zeros (Hz)
                      at V(VOUT,0)/I5

           Real                       Imaginary                 Qfactor

   1   -8.83006e+07              +/- 2.06990e+07              5.13554e-01 
   2    4.62935e+08                  0.00000e+00              -5.00000e-01

Constant factor =  5.25867e+10

DC gain =  9.99920e+05

......9......8......7......6......5......4....
154.36e-06    68.00% 
Convergence achieved in 2 iterations.
DC simulation time: CPU = 71 us, elapsed = 87.0228 us.
                      Poles (Hz)

           Real                       Imaginary                 Qfactor

   1   -1.31159e+06              +/- 5.39763e+06              2.11754e+00 
   2   -3.07645e+07              +/- 1.22499e+07              5.38180e-01 

                      Zeros (Hz)
                      at V(VOUT,0)/I5

           Real                       Imaginary                 Qfactor

   1   -9.06769e+07              +/- 2.16082e+07              5.14001e-01 
   2    4.65184e+08                  0.00000e+00              -5.00000e-01

Constant factor =  5.25867e+10

DC gain =  9.99922e+05

......9......8......7......6......5......4......
158.9e-06     70.00% 
Convergence achieved in 2 iterations.
DC simulation time: CPU = 87 us, elapsed = 95.129 us.
                      Poles (Hz)

           Real                       Imaginary                 Qfactor

   1   -1.33997e+06              +/- 5.48038e+06              2.10520e+00 
   2   -3.12990e+07              +/- 1.21127e+07              5.36136e-01 

                      Zeros (Hz)
                      at V(VOUT,0)/I5

           Real                       Imaginary                 Qfactor

   1   -9.30415e+07              +/- 2.25216e+07              5.14440e-01 
   2    4.67410e+08                  0.00000e+00              -5.00000e-01

Constant factor =  5.25867e+10

DC gain =  9.99924e+05

......9......8......7......6......5......4......3
163.44e-06    72.00% 
Convergence achieved in 2 iterations.
DC simulation time: CPU = 78 us, elapsed = 89.1685 us.
                      Poles (Hz)

           Real                       Imaginary                 Qfactor

   1   -1.36839e+06              +/- 5.56212e+06              2.09295e+00 
   2   -3.18334e+07              +/- 1.19445e+07              5.34039e-01 

                      Zeros (Hz)
                      at V(VOUT,0)/I5

           Real                       Imaginary                 Qfactor

   1   -9.53946e+07              +/- 2.34390e+07              5.14872e-01 
   2    4.69614e+08                  0.00000e+00              -5.00000e-01

Constant factor =  5.25867e+10

DC gain =  9.99926e+05

......9......8......7......6......5......4......3.
167.98e-06    74.00% 
Convergence achieved in 2 iterations.
DC simulation time: CPU = 69 us, elapsed = 92.9832 us.
                      Poles (Hz)

           Real                       Imaginary                 Qfactor

   1   -1.39687e+06              +/- 5.64289e+06              2.08080e+00 
   2   -3.23678e+07              +/- 1.17439e+07              5.31894e-01 

                      Zeros (Hz)
                      at V(VOUT,0)/I5

           Real                       Imaginary                 Qfactor

   1   -9.77365e+07              +/- 2.43603e+07              5.15297e-01 
   2    4.71795e+08                  0.00000e+00              -5.00000e-01

Constant factor =  5.25867e+10

DC gain =  9.99928e+05

......9......8......7......6......5......4......3...
172.52e-06    76.00% 
Convergence achieved in 2 iterations.
DC simulation time: CPU = 88 us, elapsed = 105.858 us.
                      Poles (Hz)

           Real                       Imaginary                 Qfactor

   1   -1.42539e+06              +/- 5.72272e+06              2.06875e+00 
   2   -3.29022e+07              +/- 1.15094e+07              5.29708e-01 

                      Zeros (Hz)
                      at V(VOUT,0)/I5

           Real                       Imaginary                 Qfactor

   1   -1.00068e+08              +/- 2.52851e+07              5.15715e-01 
   2    4.73954e+08                  0.00000e+00              -5.00000e-01

Constant factor =  5.25867e+10

DC gain =  9.99930e+05

......9......8......7......6......5......4......3....
177.06e-06    78.00% 
Convergence achieved in 2 iterations.
DC simulation time: CPU = 110 us, elapsed = 128.031 us.
                      Poles (Hz)

           Real                       Imaginary                 Qfactor

   1   -1.45396e+06              +/- 5.80168e+06              2.05682e+00 
   2   -3.34365e+07              +/- 1.12386e+07              5.27488e-01 

                      Zeros (Hz)
                      at V(VOUT,0)/I5

           Real                       Imaginary                 Qfactor

   1   -1.02388e+08              +/- 2.62133e+07              5.16126e-01 
   2    4.76092e+08                  0.00000e+00              -5.00000e-01

Constant factor =  5.25867e+10

DC gain =  9.99932e+05

......9......8......7......6......5......4......3......
181.6e-06     80.00% 
Convergence achieved in 2 iterations.
DC simulation time: CPU = 80 us, elapsed = 107.05 us.
                      Poles (Hz)

           Real                       Imaginary                 Qfactor

   1   -1.48259e+06              +/- 5.87978e+06              2.04501e+00 
   2   -3.39707e+07              +/- 1.09290e+07              5.25239e-01 

                      Zeros (Hz)
                      at V(VOUT,0)/I5

           Real                       Imaginary                 Qfactor

   1   -1.04698e+08              +/- 2.71448e+07              5.16532e-01 
   2    4.78209e+08                  0.00000e+00              -5.00000e-01

Constant factor =  5.25867e+10

DC gain =  9.99934e+05

......9......8......7......6......5......4......3......2
186.14e-06    82.00% 
Convergence achieved in 2 iterations.
DC simulation time: CPU = 72 us, elapsed = 91.0759 us.
                      Poles (Hz)

           Real                       Imaginary                 Qfactor

   1   -1.51126e+06              +/- 5.95707e+06              2.03333e+00 
   2   -3.45049e+07              +/- 1.05771e+07              5.22964e-01 

                      Zeros (Hz)
                      at V(VOUT,0)/I5

           Real                       Imaginary                 Qfactor

   1   -1.06998e+08              +/- 2.80794e+07              5.16931e-01 
   2    4.80307e+08                  0.00000e+00              -5.00000e-01

Constant factor =  5.25867e+10

DC gain =  9.99935e+05

......9......8......7......6......5......4......3......2.
190.68e-06    84.00% 
Convergence achieved in 2 iterations.
DC simulation time: CPU = 65 us, elapsed = 74.8634 us.
                      Poles (Hz)

           Real                       Imaginary                 Qfactor

   1   -1.53998e+06              +/- 6.03358e+06              2.02179e+00 
   2   -3.50391e+07              +/- 1.01786e+07              5.20669e-01 

                      Zeros (Hz)
                      at V(VOUT,0)/I5

           Real                       Imaginary                 Qfactor

   1   -1.09288e+08              +/- 2.90169e+07              5.17324e-01 
   2    4.82384e+08                  0.00000e+00              -5.00000e-01

Constant factor =  5.25867e+10

DC gain =  9.99937e+05

......9......8......7......6......5......4......3......2...
195.22e-06    86.00% 
Convergence achieved in 2 iterations.
DC simulation time: CPU = 70 us, elapsed = 102.043 us.
                      Poles (Hz)

           Real                       Imaginary                 Qfactor

   1   -1.56875e+06              +/- 6.10934e+06              2.01037e+00 
   2   -3.55732e+07              +/- 9.72765e+06              5.18357e-01 

                      Zeros (Hz)
                      at V(VOUT,0)/I5

           Real                       Imaginary                 Qfactor

   1   -1.11569e+08              +/- 2.99572e+07              5.17711e-01 
   2    4.84442e+08                  0.00000e+00              -5.00000e-01

Constant factor =  5.25867e+10

DC gain =  9.99938e+05

......9......8......7......6......5......4......3......2....
199.76e-06    88.00% 
Convergence achieved in 2 iterations.
DC simulation time: CPU = 74 us, elapsed = 95.8443 us.
                      Poles (Hz)

           Real                       Imaginary                 Qfactor

   1   -1.59756e+06              +/- 6.18438e+06              1.99910e+00 
   2   -3.61072e+07              +/- 9.21658e+06              5.16032e-01 

                      Zeros (Hz)
                      at V(VOUT,0)/I5

           Real                       Imaginary                 Qfactor

   1   -1.13840e+08              +/- 3.09002e+07              5.18092e-01 
   2    4.86481e+08                  0.00000e+00              -5.00000e-01

Constant factor =  5.25867e+10

DC gain =  9.99940e+05

......9......8......7......6......5......4......3......2......
204.3e-06     90.00% 
Convergence achieved in 2 iterations.
DC simulation time: CPU = 92 us, elapsed = 112.057 us.
                      Poles (Hz)

           Real                       Imaginary                 Qfactor

   1   -1.62643e+06              +/- 6.25874e+06              1.98798e+00 
   2   -3.66412e+07              +/- 8.63472e+06              5.13696e-01 

                      Zeros (Hz)
                      at V(VOUT,0)/I5

           Real                       Imaginary                 Qfactor

   1   -1.16101e+08              +/- 3.18457e+07              5.18468e-01 
   2    4.88501e+08                  0.00000e+00              -5.00000e-01

Constant factor =  5.25867e+10

DC gain =  9.99941e+05

......9......8......7......6......5......4......3......2......1
208.84e-06    92.00% 
Convergence achieved in 2 iterations.
DC simulation time: CPU = 91 us, elapsed = 108.004 us.
                      Poles (Hz)

           Real                       Imaginary                 Qfactor

   1   -1.65535e+06              +/- 6.33243e+06              1.97699e+00 
   2   -3.71752e+07              +/- 7.96657e+06              5.11352e-01 

                      Zeros (Hz)
                      at V(VOUT,0)/I5

           Real                       Imaginary                 Qfactor

   1   -1.18354e+08              +/- 3.27936e+07              5.18839e-01 
   2    4.90504e+08                  0.00000e+00              -5.00000e-01

Constant factor =  5.25867e+10

DC gain =  9.99942e+05

......9......8......7......6......5......4......3......2......1.
213.38e-06    94.00% 
Convergence achieved in 2 iterations.
DC simulation time: CPU = 70 us, elapsed = 87.9765 us.
                      Poles (Hz)

           Real                       Imaginary                 Qfactor

   1   -1.68431e+06              +/- 6.40548e+06              1.96615e+00 
   2   -3.77091e+07              +/- 7.18807e+06              5.09003e-01 

                      Zeros (Hz)
                      at V(VOUT,0)/I5

           Real                       Imaginary                 Qfactor

   1   -1.20598e+08              +/- 3.37438e+07              5.19204e-01 
   2    4.92489e+08                  0.00000e+00              -5.00000e-01

Constant factor =  5.25867e+10

DC gain =  9.99944e+05

......9......8......7......6......5......4......3......2......1...
217.92e-06    96.00% 
Convergence achieved in 2 iterations.
DC simulation time: CPU = 74 us, elapsed = 84.1618 us.
                      Poles (Hz)

           Real                       Imaginary                 Qfactor

   1   -1.71333e+06              +/- 6.47792e+06              1.95545e+00 
   2   -3.82429e+07              +/- 6.25819e+06              5.06651e-01 

                      Zeros (Hz)
                      at V(VOUT,0)/I5

           Real                       Imaginary                 Qfactor

   1   -1.22833e+08              +/- 3.46961e+07              5.19564e-01 
   2    4.94456e+08                  0.00000e+00              -5.00000e-01

Constant factor =  5.25867e+10

DC gain =  9.99945e+05

......9......8......7......6......5......4......3......2......1....
222.46e-06    98.00% 
Convergence achieved in 2 iterations.
DC simulation time: CPU = 68 us, elapsed = 80.8239 us.
                      Poles (Hz)

           Real                       Imaginary                 Qfactor

   1   -1.74239e+06              +/- 6.54977e+06              1.94490e+00 
   2   -3.87767e+07              +/- 5.09467e+06              5.04297e-01 

                      Zeros (Hz)
                      at V(VOUT,0)/I5

           Real                       Imaginary                 Qfactor

   1   -1.25060e+08              +/- 3.56506e+07              5.19919e-01 
   2    4.96407e+08                  0.00000e+00              -5.00000e-01

Constant factor =  5.25867e+10

DC gain =  9.99946e+05

......9......8......7......6......5......4......3......2......1......
227e-06      100.00% 
Convergence achieved in 2 iterations.
DC simulation time: CPU = 56 us, elapsed = 68.903 us.
                      Poles (Hz)

           Real                       Imaginary                 Qfactor

   1   -1.77150e+06              +/- 6.62105e+06              1.93450e+00 
   2   -3.93105e+07              +/- 3.46993e+06              5.01944e-01 

                      Zeros (Hz)
                      at V(VOUT,0)/I5

           Real                       Imaginary                 Qfactor

   1   -1.27278e+08              +/- 3.66070e+07              5.20270e-01 
   2    4.98340e+08                  0.00000e+00              -5.00000e-01

Constant factor =  5.25867e+10

DC gain =  9.99947e+05

......9......8......7......6......5......4......3......2......1......0
Accumulated DC solution time =            23.6902 ms.
Intrinsic pz analysis time =              217.352 ms.
Total time required for pz analysis `pz': CPU = 63.133 ms, elapsed = 241.107 ms, util. = 26.2%.
Time accumulated: CPU = 442.746 ms, elapsed = 842.653 ms.
Peak resident memory used = 209 Mbytes.

modelParameter: writing model parameter values to rawfile.

Opening the PSF file ../psf/modelParameter.info ...
element: writing instance parameter values to rawfile.

Opening the PSF file ../psf/element.info ...
outputParameter: writing output parameter values to rawfile.

Opening the PSF file ../psf/outputParameter.info ...
designParamVals: writing netlist parameters to rawfile.

Opening the PSFASCII file ../psf/designParamVals.info ...
primitives: writing primitives to rawfile.

Opening the PSFASCII file ../psf/primitives.info.primitives ...
subckts: writing subcircuits to rawfile.

Opening the PSFASCII file ../psf/subckts.info.subckts ...
Licensing Information:
Lic Summary:
[09:56:35.023432] Cdslmd servers:3000@lic08.ug.kth.se
[09:56:35.547785] Feature usage summary:
[09:56:35.547785] Virtuoso_Multi_mode_Simulation


Aggregate audit (9:56:35 AM, Thur Nov 13, 2025):
Time used: CPU = 456 ms, elapsed = 901 ms, util. = 50.6%.
Time spent in licensing: elapsed = 76.7 ms, percentage of total = 8.52%.
Peak memory used = 212 Mbytes.
Simulation started at: 9:56:34 AM, Thur Nov 13, 2025, ended at: 9:56:35 AM, Thur Nov 13, 2025, with elapsed time (wall clock): 901 ms.
spectre completes with 0 errors, 0 warnings, and 4 notices.


********* LOG ENDS **************
**                             **
