
Spectre (R) Circuit Simulator
Version 24.1.0.288.isr5 64bit -- 3 Apr 2025
Copyright (C) 1989-2025 Cadence Design Systems, Inc. All rights reserved worldwide. Cadence and Spectre are registered trademarks of Cadence Design Systems, Inc. All others are the property of their respective holders.

Includes RSA BSAFE(R) Cryptographic or Security Protocol Software from RSA Security, Inc.

User: saul   Host: 680bb75d07d9   HostID: 11AC0200   PID: 38417
Memory  available: 23.2534 GB  physical: 27.3104 GB
Linux   : Rocky Linux release 8.10 (Green Obsidian)
CPU Type: 11th Gen Intel(R) Core(TM) i7-11700K @ 3.60GHz
All processors running at 3600.0 MHz
        Socket: Processors
        0:       0,  1,  2,  3,  4,  5,  6,  7,  8,  9
                10, 11, 12, 13, 14, 15
        
System load averages (1min, 5min, 15min) : 9.7 %, 8.1 %, 7.3 %
HPC is enabled


Simulating `input.scs' on 680bb75d07d9 at 3:18:49 PM, Sun Nov 9, 2025 (process id: 38417).
Current working directory: /home/saul/projects/FIL3601/Sim/LAB2/transconductance/adexl/results/data/Interactive.53/1/rootlocus/netlist
Command line:
    /opt/tools/cadence/installs/SPECTRE241/tools/bin/spectre -64  \
        input.scs +escchars +log ../psf/spectre.out -format psfxl -raw  \
        ../psf +aps +mt +lqtimeout 900 -maxw 5 -maxn 5 -env ade  \
        -ahdllibdir  \
        /home/saul/projects/FIL3601/Sim/LAB2/transconductance/adexl/results/data/Interactive.53/sharedData/Job19/ahdl/input.ahdlSimDB  \
        +logstatus  \
        +adespetkn=0001089D13A302B663E41FB550AF0DF415A679A322D5069144BF588C12F604E07EF416DC01A319B562BB63D350F116B845A374DE67FE3AB75EC1408C64CB4F925FAF79D15D9175FF34980CBD6B9974D334982B841BA441B756AF27DE1FF943E50EAE79D12DF874D3349879D118F874D3349810C1A82EC4055D88000036B0

Simulation Id: bk1bgVjYNdGrRjk7
Licensing Information:
[15:18:49.188897] Configured Lic search path (24.01-s002): 3000@lic08.ug.kth.se

Licensing Information:
[15:18:49.185353] Periodic Lic check successful

Loading /opt/tools/cadence/installs/SPECTRE241/tools.lnx86/cmi/lib/64bit/5.0/libinfineon_sh.so ...
Loading /opt/tools/cadence/installs/SPECTRE241/tools.lnx86/cmi/lib/64bit/5.0/libphilips_I_sh.so ...
Loading /opt/tools/cadence/installs/SPECTRE241/tools.lnx86/cmi/lib/64bit/5.0/libphilips_sh.so ...
Loading /opt/tools/cadence/installs/SPECTRE241/tools.lnx86/cmi/lib/64bit/5.0/libsparam_sh.so ...
Loading /opt/tools/cadence/installs/SPECTRE241/tools.lnx86/cmi/lib/64bit/5.0/libstmodels_sh.so ...
Reading file:  /home/saul/projects/FIL3601/Sim/LAB2/transconductance/adexl/results/data/Interactive.53/1/rootlocus/netlist/input.scs
Reading file:  /opt/tools/cadence/installs/SPECTRE241/tools.lnx86/spectre/etc/configs/spectre.cfg
Reading file:  /opt/pdk/xfab/XKIT/xh018/cadence/v10_0/spectre/v10_0_2/lpmos/config.scs
Reading file:  /opt/pdk/xfab/XKIT/xh018/cadence/v10_0/spectre/v10_0_2/lpmos/param.scs
Reading file:  /opt/pdk/xfab/XKIT/xh018/cadence/v10_0/spectre/v10_0_2/lpmos/bip.scs
Reading file:  /opt/pdk/xfab/XKIT/xh018/cadence/v10_0/spectre/v10_0_2/lpmos/models/bip/tm_bip.scs
Reading file:  /opt/pdk/xfab/XKIT/xh018/cadence/v10_0/spectre/v10_0_2/lpmos/models/bip/qpva.scs
Reading file:  /opt/pdk/xfab/XKIT/xh018/cadence/v10_0/spectre/v10_0_2/lpmos/models/bip/qpvb.scs
Reading file:  /opt/pdk/xfab/XKIT/xh018/cadence/v10_0/spectre/v10_0_2/lpmos/models/bip/qpvc.scs
Reading file:  /opt/pdk/xfab/XKIT/xh018/cadence/v10_0/spectre/v10_0_2/lpmos/models/bip/qpva3.scs
Reading file:  /opt/pdk/xfab/XKIT/xh018/cadence/v10_0/spectre/v10_0_2/lpmos/models/bip/qpvb3.scs
Reading file:  /opt/pdk/xfab/XKIT/xh018/cadence/v10_0/spectre/v10_0_2/lpmos/models/bip/qpvc3.scs
Reading file:  /opt/pdk/xfab/XKIT/xh018/cadence/v10_0/spectre/v10_0_2/lpmos/models/bip/qnva.scs
Reading file:  /opt/pdk/xfab/XKIT/xh018/cadence/v10_0/spectre/v10_0_2/lpmos/models/bip/qnvb.scs
Reading file:  /opt/pdk/xfab/XKIT/xh018/cadence/v10_0/spectre/v10_0_2/lpmos/models/bip/qnvba.scs
Reading file:  /opt/pdk/xfab/XKIT/xh018/cadence/v10_0/spectre/v10_0_2/lpmos/models/bip/qnvbb.scs
Reading file:  /opt/pdk/xfab/XKIT/xh018/cadence/v10_0/spectre/v10_0_2/lpmos/models/bip/qnvc.scs
Reading file:  /opt/pdk/xfab/XKIT/xh018/cadence/v10_0/spectre/v10_0_2/lpmos/models/bip/qnvca.scs
Reading file:  /opt/pdk/xfab/XKIT/xh018/cadence/v10_0/spectre/v10_0_2/lpmos/models/bip/qnvcb.scs
Reading file:  /opt/pdk/xfab/XKIT/xh018/cadence/v10_0/spectre/v10_0_2/lpmos/models/bip/qpvhscr.scs
Reading file:  /opt/pdk/xfab/XKIT/xh018/cadence/v10_0/spectre/v10_0_2/lpmos/models/bip/qpvascr.scs
Reading file:  /opt/pdk/xfab/XKIT/xh018/cadence/v10_0/spectre/v10_0_2/lpmos/models/bip/qpvhbscr.scs
Reading file:  /opt/pdk/xfab/XKIT/xh018/cadence/v10_0/spectre/v10_0_2/lpmos/models/bip/qpv_pa.scs
Reading file:  /opt/pdk/xfab/XKIT/xh018/cadence/v10_0/spectre/v10_0_2/lpmos/models/bip/qpv_pb.scs
Reading file:  /opt/pdk/xfab/XKIT/xh018/cadence/v10_0/spectre/v10_0_2/lpmos/models/bip/qpv_pc.scs
Reading file:  /opt/pdk/xfab/XKIT/xh018/cadence/v10_0/spectre/v10_0_2/lpmos/models/bip/qpv_pd.scs
Reading file:  /opt/pdk/xfab/XKIT/xh018/cadence/v10_0/spectre/v10_0_2/lpmos/models/bip/qpv_pe.scs
Reading file:  /opt/pdk/xfab/XKIT/xh018/cadence/v10_0/spectre/v10_0_2/lpmos/models/bip/qpv_pf.scs
Reading file:  /opt/pdk/xfab/XKIT/xh018/cadence/v10_0/spectre/v10_0_2/lpmos/models/bip/qpl_pa.scs
Reading file:  /opt/pdk/xfab/XKIT/xh018/cadence/v10_0/spectre/v10_0_2/lpmos/models/bip/qpl_pb.scs
Reading file:  /opt/pdk/xfab/XKIT/xh018/cadence/v10_0/spectre/v10_0_2/lpmos/models/bip/qpl_pc.scs
Reading file:  /opt/pdk/xfab/XKIT/xh018/cadence/v10_0/spectre/v10_0_2/lpmos/models/bip/qpl_pd.scs
Reading file:  /opt/pdk/xfab/XKIT/xh018/cadence/v10_0/spectre/v10_0_2/lpmos/models/bip/qpl_pe.scs
Reading file:  /opt/pdk/xfab/XKIT/xh018/cadence/v10_0/spectre/v10_0_2/lpmos/models/bip/qpl_pf.scs
Reading file:  /opt/pdk/xfab/XKIT/xh018/cadence/v10_0/spectre/v10_0_2/lpmos/models/bip/qnl_pa.scs
Reading file:  /opt/pdk/xfab/XKIT/xh018/cadence/v10_0/spectre/v10_0_2/lpmos/models/bip/qnl_pb.scs
Reading file:  /opt/pdk/xfab/XKIT/xh018/cadence/v10_0/spectre/v10_0_2/lpmos/models/bip/qnl_pc.scs
Reading file:  /opt/pdk/xfab/XKIT/xh018/cadence/v10_0/spectre/v10_0_2/lpmos/models/bip/qnl_pd.scs
Reading file:  /opt/pdk/xfab/XKIT/xh018/cadence/v10_0/spectre/v10_0_2/lpmos/models/bip/qnl_pe.scs
Reading file:  /opt/pdk/xfab/XKIT/xh018/cadence/v10_0/spectre/v10_0_2/lpmos/models/bip/qnl_pf.scs
Reading file:  /opt/pdk/xfab/XKIT/xh018/cadence/v10_0/spectre/v10_0_2/lpmos/cap.scs
Reading file:  /opt/pdk/xfab/XKIT/xh018/cadence/v10_0/spectre/v10_0_2/lpmos/models/cap/tm_cap.scs
Reading file:  /opt/pdk/xfab/XKIT/xh018/cadence/v10_0/spectre/v10_0_2/lpmos/models/cap/csandwt3.scs
Reading file:  /opt/pdk/xfab/XKIT/xh018/cadence/v10_0/spectre/v10_0_2/lpmos/models/cap/csandwt4.scs
Reading file:  /opt/pdk/xfab/XKIT/xh018/cadence/v10_0/spectre/v10_0_2/lpmos/models/cap/csandwt5.scs
Reading file:  /opt/pdk/xfab/XKIT/xh018/cadence/v10_0/spectre/v10_0_2/lpmos/models/cap/csf2p.scs
Reading file:  /opt/pdk/xfab/XKIT/xh018/cadence/v10_0/spectre/v10_0_2/lpmos/models/cap/csf3p.scs
Reading file:  /opt/pdk/xfab/XKIT/xh018/cadence/v10_0/spectre/v10_0_2/lpmos/models/cap/csf3.scs
Reading file:  /opt/pdk/xfab/XKIT/xh018/cadence/v10_0/spectre/v10_0_2/lpmos/models/cap/csf4.scs
Reading file:  /opt/pdk/xfab/XKIT/xh018/cadence/v10_0/spectre/v10_0_2/lpmos/models/cap/csf5.scs
Reading file:  /opt/pdk/xfab/XKIT/xh018/cadence/v10_0/spectre/v10_0_2/lpmos/models/cap/csft4.scs
Reading file:  /opt/pdk/xfab/XKIT/xh018/cadence/v10_0/spectre/v10_0_2/lpmos/models/cap/csft5.scs
Reading file:  /opt/pdk/xfab/XKIT/xh018/cadence/v10_0/spectre/v10_0_2/lpmos/models/cap/csft6.scs
Reading file:  /opt/pdk/xfab/XKIT/xh018/cadence/v10_0/spectre/v10_0_2/lpmos/models/cap/csf3a.scs
Reading file:  /opt/pdk/xfab/XKIT/xh018/cadence/v10_0/spectre/v10_0_2/lpmos/models/cap/csf4a.scs
Reading file:  /opt/pdk/xfab/XKIT/xh018/cadence/v10_0/spectre/v10_0_2/lpmos/models/cap/csf5a.scs
Reading file:  /opt/pdk/xfab/XKIT/xh018/cadence/v10_0/spectre/v10_0_2/lpmos/models/cap/csft4a.scs
Reading file:  /opt/pdk/xfab/XKIT/xh018/cadence/v10_0/spectre/v10_0_2/lpmos/models/cap/csft5a.scs
Reading file:  /opt/pdk/xfab/XKIT/xh018/cadence/v10_0/spectre/v10_0_2/lpmos/models/cap/csft6a.scs
Reading file:  /opt/pdk/xfab/XKIT/xh018/cadence/v10_0/spectre/v10_0_2/lpmos/models/cap/cif3a.scs
Reading file:  /opt/pdk/xfab/XKIT/xh018/cadence/v10_0/spectre/v10_0_2/lpmos/models/cap/cif4a.scs
Reading file:  /opt/pdk/xfab/XKIT/xh018/cadence/v10_0/spectre/v10_0_2/lpmos/models/cap/cif5a.scs
Reading file:  /opt/pdk/xfab/XKIT/xh018/cadence/v10_0/spectre/v10_0_2/lpmos/models/cap/cift4a.scs
Reading file:  /opt/pdk/xfab/XKIT/xh018/cadence/v10_0/spectre/v10_0_2/lpmos/models/cap/cift5a.scs
Reading file:  /opt/pdk/xfab/XKIT/xh018/cadence/v10_0/spectre/v10_0_2/lpmos/models/cap/cift6a.scs
Reading file:  /opt/pdk/xfab/XKIT/xh018/cadence/v10_0/spectre/v10_0_2/lpmos/models/cap/cmm3.scs
Reading file:  /opt/pdk/xfab/XKIT/xh018/cadence/v10_0/spectre/v10_0_2/lpmos/models/cap/cmm4t.scs
Reading file:  /opt/pdk/xfab/XKIT/xh018/cadence/v10_0/spectre/v10_0_2/lpmos/models/cap/cmm4.scs
Reading file:  /opt/pdk/xfab/XKIT/xh018/cadence/v10_0/spectre/v10_0_2/lpmos/models/cap/cmm5t.scs
Reading file:  /opt/pdk/xfab/XKIT/xh018/cadence/v10_0/spectre/v10_0_2/lpmos/models/cap/cmm6t.scs
Reading file:  /opt/pdk/xfab/XKIT/xh018/cadence/v10_0/spectre/v10_0_2/lpmos/models/cap/cdmm4.scs
Reading file:  /opt/pdk/xfab/XKIT/xh018/cadence/v10_0/spectre/v10_0_2/lpmos/models/cap/cdmm4t.scs
Reading file:  /opt/pdk/xfab/XKIT/xh018/cadence/v10_0/spectre/v10_0_2/lpmos/models/cap/ctmm5.scs
Reading file:  /opt/pdk/xfab/XKIT/xh018/cadence/v10_0/spectre/v10_0_2/lpmos/models/cap/ctmm5t.scs
Reading file:  /opt/pdk/xfab/XKIT/xh018/cadence/v10_0/spectre/v10_0_2/lpmos/models/cap/cmmh3.scs
Reading file:  /opt/pdk/xfab/XKIT/xh018/cadence/v10_0/spectre/v10_0_2/lpmos/models/cap/cmmh4t.scs
Reading file:  /opt/pdk/xfab/XKIT/xh018/cadence/v10_0/spectre/v10_0_2/lpmos/models/cap/cmmh4.scs
Reading file:  /opt/pdk/xfab/XKIT/xh018/cadence/v10_0/spectre/v10_0_2/lpmos/models/cap/cmmh5t.scs
Reading file:  /opt/pdk/xfab/XKIT/xh018/cadence/v10_0/spectre/v10_0_2/lpmos/models/cap/cmmh6t.scs
Reading file:  /opt/pdk/xfab/XKIT/xh018/cadence/v10_0/spectre/v10_0_2/lpmos/models/cap/cdmmh4.scs
Reading file:  /opt/pdk/xfab/XKIT/xh018/cadence/v10_0/spectre/v10_0_2/lpmos/models/cap/cdmmh4t.scs
Reading file:  /opt/pdk/xfab/XKIT/xh018/cadence/v10_0/spectre/v10_0_2/lpmos/models/cap/ctmmh5.scs
Reading file:  /opt/pdk/xfab/XKIT/xh018/cadence/v10_0/spectre/v10_0_2/lpmos/models/cap/ctmmh5t.scs
Reading file:  /opt/pdk/xfab/XKIT/xh018/cadence/v10_0/spectre/v10_0_2/lpmos/models/cap/mosvc.scs
Reading file:  /opt/pdk/xfab/XKIT/xh018/cadence/v10_0/spectre/v10_0_2/lpmos/models/cap/mosvc_pmos.scs
Reading file:  /opt/pdk/xfab/XKIT/xh018/cadence/v10_0/spectre/v10_0_2/lpmos/models/cap/mosvci.scs
Reading file:  /opt/pdk/xfab/XKIT/xh018/cadence/v10_0/spectre/v10_0_2/lpmos/models/cap/mosvci_nmos.scs
Reading file:  /opt/pdk/xfab/XKIT/xh018/cadence/v10_0/spectre/v10_0_2/lpmos/models/cap/mosvci_m.scs
Reading file:  /opt/pdk/xfab/XKIT/xh018/cadence/v10_0/spectre/v10_0_2/lpmos/models/cap/mosvc3.scs
Reading file:  /opt/pdk/xfab/XKIT/xh018/cadence/v10_0/spectre/v10_0_2/lpmos/models/cap/mosvc3_pmos.scs
Reading file:  /opt/pdk/xfab/XKIT/xh018/cadence/v10_0/spectre/v10_0_2/lpmos/models/cap/mosvc3i.scs
Reading file:  /opt/pdk/xfab/XKIT/xh018/cadence/v10_0/spectre/v10_0_2/lpmos/models/cap/mosvc3i_nmos.scs
Reading file:  /opt/pdk/xfab/XKIT/xh018/cadence/v10_0/spectre/v10_0_2/lpmos/models/cap/mosvc3i_m.scs
Reading file:  /opt/pdk/xfab/XKIT/xh018/cadence/v10_0/spectre/v10_0_2/lpmos/models/cap/cpod.scs
Reading file:  /opt/pdk/xfab/XKIT/xh018/cadence/v10_0/spectre/v10_0_2/lpmos/models/cap/cpod_i.scs
Reading file:  /opt/pdk/xfab/XKIT/xh018/cadence/v10_0/spectre/v10_0_2/lpmos/models/cap/cpodhv.scs
Reading file:  /opt/pdk/xfab/XKIT/xh018/cadence/v10_0/spectre/v10_0_2/lpmos/models/cap/cpodhv_i.scs
Reading file:  /opt/pdk/xfab/XKIT/xh018/cadence/v10_0/spectre/v10_0_2/lpmos/models/cap/cp1sub.scs
Reading file:  /opt/pdk/xfab/XKIT/xh018/cadence/v10_0/spectre/v10_0_2/lpmos/models/cap/cp1suba.scs
Reading file:  /opt/pdk/xfab/XKIT/xh018/cadence/v10_0/spectre/v10_0_2/lpmos/models/cap/cp1subp.scs
Reading file:  /opt/pdk/xfab/XKIT/xh018/cadence/v10_0/spectre/v10_0_2/lpmos/models/cap/tag_25v.scs
Reading file:  /opt/pdk/xfab/XKIT/xh018/cadence/v10_0/spectre/v10_0_2/lpmos/models/cap/tag_60v.scs
Reading file:  /opt/pdk/xfab/XKIT/xh018/cadence/v10_0/spectre/v10_0_2/lpmos/dio.scs
Reading file:  /opt/pdk/xfab/XKIT/xh018/cadence/v10_0/spectre/v10_0_2/lpmos/models/dio/tm_dio.scs
Reading file:  /opt/pdk/xfab/XKIT/xh018/cadence/v10_0/spectre/v10_0_2/lpmos/models/dio/dn.scs
Reading file:  /opt/pdk/xfab/XKIT/xh018/cadence/v10_0/spectre/v10_0_2/lpmos/models/dio/dp.scs
Reading file:  /opt/pdk/xfab/XKIT/xh018/cadence/v10_0/spectre/v10_0_2/lpmos/models/dio/dnw.scs
Reading file:  /opt/pdk/xfab/XKIT/xh018/cadence/v10_0/spectre/v10_0_2/lpmos/models/dio/dn3.scs
Reading file:  /opt/pdk/xfab/XKIT/xh018/cadence/v10_0/spectre/v10_0_2/lpmos/models/dio/dnn3.scs
Reading file:  /opt/pdk/xfab/XKIT/xh018/cadence/v10_0/spectre/v10_0_2/lpmos/models/dio/dp3.scs
Reading file:  /opt/pdk/xfab/XKIT/xh018/cadence/v10_0/spectre/v10_0_2/lpmos/models/dio/dnw3.scs
Reading file:  /opt/pdk/xfab/XKIT/xh018/cadence/v10_0/spectre/v10_0_2/lpmos/models/dio/ddnwmv.scs
Reading file:  /opt/pdk/xfab/XKIT/xh018/cadence/v10_0/spectre/v10_0_2/lpmos/models/dio/dpdnwmv.scs
Reading file:  /opt/pdk/xfab/XKIT/xh018/cadence/v10_0/spectre/v10_0_2/lpmos/models/dio/dipdnwmv.scs
Reading file:  /opt/pdk/xfab/XKIT/xh018/cadence/v10_0/spectre/v10_0_2/lpmos/models/dio/ddnw.scs
Reading file:  /opt/pdk/xfab/XKIT/xh018/cadence/v10_0/spectre/v10_0_2/lpmos/models/dio/ddnwa.scs
Reading file:  /opt/pdk/xfab/XKIT/xh018/cadence/v10_0/spectre/v10_0_2/lpmos/models/dio/dpdnw.scs
Reading file:  /opt/pdk/xfab/XKIT/xh018/cadence/v10_0/spectre/v10_0_2/lpmos/models/dio/dipdnw.scs
Reading file:  /opt/pdk/xfab/XKIT/xh018/cadence/v10_0/spectre/v10_0_2/lpmos/models/dio/dnhpw.scs
Reading file:  /opt/pdk/xfab/XKIT/xh018/cadence/v10_0/spectre/v10_0_2/lpmos/models/dio/dnhpwa.scs
Reading file:  /opt/pdk/xfab/XKIT/xh018/cadence/v10_0/spectre/v10_0_2/lpmos/models/dio/dphnw.scs
Reading file:  /opt/pdk/xfab/XKIT/xh018/cadence/v10_0/spectre/v10_0_2/lpmos/models/dio/dphnwa.scs
Reading file:  /opt/pdk/xfab/XKIT/xh018/cadence/v10_0/spectre/v10_0_2/lpmos/models/dio/dhpw.scs
Reading file:  /opt/pdk/xfab/XKIT/xh018/cadence/v10_0/spectre/v10_0_2/lpmos/models/dio/dhnw.scs
Reading file:  /opt/pdk/xfab/XKIT/xh018/cadence/v10_0/spectre/v10_0_2/lpmos/models/dio/dndf.scs
Reading file:  /opt/pdk/xfab/XKIT/xh018/cadence/v10_0/spectre/v10_0_2/lpmos/models/dio/dpdwhn.scs
Reading file:  /opt/pdk/xfab/XKIT/xh018/cadence/v10_0/spectre/v10_0_2/lpmos/models/dio/dwhn.scs
Reading file:  /opt/pdk/xfab/XKIT/xh018/cadence/v10_0/spectre/v10_0_2/lpmos/models/dio/dpwhn.scs
Reading file:  /opt/pdk/xfab/XKIT/xh018/cadence/v10_0/spectre/v10_0_2/lpmos/models/dio/dpndf.scs
Reading file:  /opt/pdk/xfab/XKIT/xh018/cadence/v10_0/spectre/v10_0_2/lpmos/models/dio/dpdddnw.scs
Reading file:  /opt/pdk/xfab/XKIT/xh018/cadence/v10_0/spectre/v10_0_2/lpmos/models/dio/ddpldnw.scs
Reading file:  /opt/pdk/xfab/XKIT/xh018/cadence/v10_0/spectre/v10_0_2/lpmos/models/dio/dn3dpl.scs
Reading file:  /opt/pdk/xfab/XKIT/xh018/cadence/v10_0/spectre/v10_0_2/lpmos/models/dio/dbn.scs
Reading file:  /opt/pdk/xfab/XKIT/xh018/cadence/v10_0/spectre/v10_0_2/lpmos/models/dio/dpol.scs
Reading file:  /opt/pdk/xfab/XKIT/xh018/cadence/v10_0/spectre/v10_0_2/lpmos/models/dio/dnpdd_scr.scs
Reading file:  /opt/pdk/xfab/XKIT/xh018/cadence/v10_0/spectre/v10_0_2/lpmos/models/dio/dpdd_scr.scs
Reading file:  /opt/pdk/xfab/XKIT/xh018/cadence/v10_0/spectre/v10_0_2/lpmos/models/dio/dsb.scs
Reading file:  /opt/pdk/xfab/XKIT/xh018/cadence/v10_0/spectre/v10_0_2/lpmos/models/dio/dsba.scs
Reading file:  /opt/pdk/xfab/XKIT/xh018/cadence/v10_0/spectre/v10_0_2/lpmos/models/dio/dsba_qp1.scs
Reading file:  /opt/pdk/xfab/XKIT/xh018/cadence/v10_0/spectre/v10_0_2/lpmos/models/dio/dnp20.scs
Reading file:  /opt/pdk/xfab/XKIT/xh018/cadence/v10_0/spectre/v10_0_2/lpmos/models/dio/dpp20.scs
Reading file:  /opt/pdk/xfab/XKIT/xh018/cadence/v10_0/spectre/v10_0_2/lpmos/models/dio/dn3sci.scs
Reading file:  /opt/pdk/xfab/XKIT/xh018/cadence/v10_0/spectre/v10_0_2/lpmos/models/dio/dscidnwmv.scs
Reading file:  /opt/pdk/xfab/XKIT/xh018/cadence/v10_0/spectre/v10_0_2/lpmos/mos.scs
Reading file:  /opt/pdk/xfab/XKIT/xh018/cadence/v10_0/spectre/v10_0_2/lpmos/models/mos/tm_mos.scs
Reading file:  /opt/pdk/xfab/XKIT/xh018/cadence/v10_0/spectre/v10_0_2/lpmos/models/mos/ne.scs
Reading file:  /opt/pdk/xfab/XKIT/xh018/cadence/v10_0/spectre/v10_0_2/lpmos/models/mos/nei.scs
Reading file:  /opt/pdk/xfab/XKIT/xh018/cadence/v10_0/spectre/v10_0_2/lpmos/models/mos/nei_6.scs
Reading file:  /opt/pdk/xfab/XKIT/xh018/cadence/v10_0/spectre/v10_0_2/lpmos/models/mos/nei_m_6.scs
Reading file:  /opt/pdk/xfab/XKIT/xh018/cadence/v10_0/spectre/v10_0_2/lpmos/models/mos/nei_a_6.scs
Reading file:  /opt/pdk/xfab/XKIT/xh018/cadence/v10_0/spectre/v10_0_2/lpmos/models/mos/pe.scs
Reading file:  /opt/pdk/xfab/XKIT/xh018/cadence/v10_0/spectre/v10_0_2/lpmos/models/mos/pe_5.scs
Reading file:  /opt/pdk/xfab/XKIT/xh018/cadence/v10_0/spectre/v10_0_2/lpmos/models/mos/pei.scs
Reading file:  /opt/pdk/xfab/XKIT/xh018/cadence/v10_0/spectre/v10_0_2/lpmos/models/mos/pei_5.scs
Reading file:  /opt/pdk/xfab/XKIT/xh018/cadence/v10_0/spectre/v10_0_2/lpmos/models/mos/pei_m_5.scs
Reading file:  /opt/pdk/xfab/XKIT/xh018/cadence/v10_0/spectre/v10_0_2/lpmos/models/mos/pei_a_5.scs
Reading file:  /opt/pdk/xfab/XKIT/xh018/cadence/v10_0/spectre/v10_0_2/lpmos/models/mos/nel.scs
Reading file:  /opt/pdk/xfab/XKIT/xh018/cadence/v10_0/spectre/v10_0_2/lpmos/models/mos/neli.scs
Reading file:  /opt/pdk/xfab/XKIT/xh018/cadence/v10_0/spectre/v10_0_2/lpmos/models/mos/neli_6.scs
Reading file:  /opt/pdk/xfab/XKIT/xh018/cadence/v10_0/spectre/v10_0_2/lpmos/models/mos/neli_m_6.scs
Reading file:  /opt/pdk/xfab/XKIT/xh018/cadence/v10_0/spectre/v10_0_2/lpmos/models/mos/pel.scs
Reading file:  /opt/pdk/xfab/XKIT/xh018/cadence/v10_0/spectre/v10_0_2/lpmos/models/mos/pel_5.scs
Reading file:  /opt/pdk/xfab/XKIT/xh018/cadence/v10_0/spectre/v10_0_2/lpmos/models/mos/peli.scs
Reading file:  /opt/pdk/xfab/XKIT/xh018/cadence/v10_0/spectre/v10_0_2/lpmos/models/mos/peli_5.scs
Reading file:  /opt/pdk/xfab/XKIT/xh018/cadence/v10_0/spectre/v10_0_2/lpmos/models/mos/peli_m_5.scs
Reading file:  /opt/pdk/xfab/XKIT/xh018/cadence/v10_0/spectre/v10_0_2/lpmos/models/mos/nn3.scs
Reading file:  /opt/pdk/xfab/XKIT/xh018/cadence/v10_0/spectre/v10_0_2/lpmos/models/mos/ne3.scs
Reading file:  /opt/pdk/xfab/XKIT/xh018/cadence/v10_0/spectre/v10_0_2/lpmos/models/mos/ne3i.scs
Reading file:  /opt/pdk/xfab/XKIT/xh018/cadence/v10_0/spectre/v10_0_2/lpmos/models/mos/ne3i_6.scs
Reading file:  /opt/pdk/xfab/XKIT/xh018/cadence/v10_0/spectre/v10_0_2/lpmos/models/mos/ne3i_m_6.scs
Reading file:  /opt/pdk/xfab/XKIT/xh018/cadence/v10_0/spectre/v10_0_2/lpmos/models/mos/ne3i_a_6.scs
Reading file:  /opt/pdk/xfab/XKIT/xh018/cadence/v10_0/spectre/v10_0_2/lpmos/models/mos/pe3.scs
Reading file:  /opt/pdk/xfab/XKIT/xh018/cadence/v10_0/spectre/v10_0_2/lpmos/models/mos/pe3_5.scs
Reading file:  /opt/pdk/xfab/XKIT/xh018/cadence/v10_0/spectre/v10_0_2/lpmos/models/mos/pe3i.scs
Reading file:  /opt/pdk/xfab/XKIT/xh018/cadence/v10_0/spectre/v10_0_2/lpmos/models/mos/pe3i_5.scs
Reading file:  /opt/pdk/xfab/XKIT/xh018/cadence/v10_0/spectre/v10_0_2/lpmos/models/mos/pe3i_m_5.scs
Reading file:  /opt/pdk/xfab/XKIT/xh018/cadence/v10_0/spectre/v10_0_2/lpmos/models/mos/pe3i_a_5.scs
Reading file:  /opt/pdk/xfab/XKIT/xh018/cadence/v10_0/spectre/v10_0_2/lpmos/models/mos/pe3ln.scs
Reading file:  /opt/pdk/xfab/XKIT/xh018/cadence/v10_0/spectre/v10_0_2/lpmos/models/mos/pe3ln_5.scs
Reading file:  /opt/pdk/xfab/XKIT/xh018/cadence/v10_0/spectre/v10_0_2/lpmos/models/mos/pe3lni.scs
Reading file:  /opt/pdk/xfab/XKIT/xh018/cadence/v10_0/spectre/v10_0_2/lpmos/models/mos/pe3lni_5.scs
Reading file:  /opt/pdk/xfab/XKIT/xh018/cadence/v10_0/spectre/v10_0_2/lpmos/models/mos/pe3lni_m_5.scs
Reading file:  /opt/pdk/xfab/XKIT/xh018/cadence/v10_0/spectre/v10_0_2/lpmos/models/mos/nd3.scs
Reading file:  /opt/pdk/xfab/XKIT/xh018/cadence/v10_0/spectre/v10_0_2/lpmos/models/mos/nd3_mos1.scs
Reading file:  /opt/pdk/xfab/XKIT/xh018/cadence/v10_0/spectre/v10_0_2/lpmos/models/mos/nd3_mos2.scs
Reading file:  /opt/pdk/xfab/XKIT/xh018/cadence/v10_0/spectre/v10_0_2/lpmos/models/mos/nd3i.scs
Reading file:  /opt/pdk/xfab/XKIT/xh018/cadence/v10_0/spectre/v10_0_2/lpmos/models/mos/nd3i_mos1.scs
Reading file:  /opt/pdk/xfab/XKIT/xh018/cadence/v10_0/spectre/v10_0_2/lpmos/models/mos/nd3i_mos2.scs
Reading file:  /opt/pdk/xfab/XKIT/xh018/cadence/v10_0/spectre/v10_0_2/lpmos/models/mos/nd3i_6.scs
Reading file:  /opt/pdk/xfab/XKIT/xh018/cadence/v10_0/spectre/v10_0_2/lpmos/models/mos/nd3i_m_6.scs
Reading file:  /opt/pdk/xfab/XKIT/xh018/cadence/v10_0/spectre/v10_0_2/lpmos/models/mos/nelna.scs
Reading file:  /opt/pdk/xfab/XKIT/xh018/cadence/v10_0/spectre/v10_0_2/lpmos/models/mos/nelnai.scs
Reading file:  /opt/pdk/xfab/XKIT/xh018/cadence/v10_0/spectre/v10_0_2/lpmos/models/mos/nelnai_6.scs
Reading file:  /opt/pdk/xfab/XKIT/xh018/cadence/v10_0/spectre/v10_0_2/lpmos/models/mos/nelnai_m_6.scs
Reading file:  /opt/pdk/xfab/XKIT/xh018/cadence/v10_0/spectre/v10_0_2/lpmos/models/mos/ne3lna.scs
Reading file:  /opt/pdk/xfab/XKIT/xh018/cadence/v10_0/spectre/v10_0_2/lpmos/models/mos/ne3lnai.scs
Reading file:  /opt/pdk/xfab/XKIT/xh018/cadence/v10_0/spectre/v10_0_2/lpmos/models/mos/ne3lnai_6.scs
Reading file:  /opt/pdk/xfab/XKIT/xh018/cadence/v10_0/spectre/v10_0_2/lpmos/models/mos/ne3lnai_m_6.scs
Reading file:  /opt/pdk/xfab/XKIT/xh018/cadence/v10_0/spectre/v10_0_2/lpmos/models/mos/pe3lna.scs
Reading file:  /opt/pdk/xfab/XKIT/xh018/cadence/v10_0/spectre/v10_0_2/lpmos/models/mos/pe3lna_5.scs
Reading file:  /opt/pdk/xfab/XKIT/xh018/cadence/v10_0/spectre/v10_0_2/lpmos/models/mos/pe3lnai.scs
Reading file:  /opt/pdk/xfab/XKIT/xh018/cadence/v10_0/spectre/v10_0_2/lpmos/models/mos/pe3lnai_5.scs
Reading file:  /opt/pdk/xfab/XKIT/xh018/cadence/v10_0/spectre/v10_0_2/lpmos/models/mos/pe3lnai_m_5.scs
Reading file:  /opt/pdk/xfab/XKIT/xh018/cadence/v10_0/spectre/v10_0_2/lpmos/models/mos/nmma.scs
Reading file:  /opt/pdk/xfab/XKIT/xh018/cadence/v10_0/spectre/v10_0_2/lpmos/models/mos/jf_nmma.scs
Reading file:  /opt/pdk/xfab/XKIT/xh018/cadence/v10_0/spectre/v10_0_2/lpmos/models/mos/nmma_bjt.scs
Reading file:  /opt/pdk/xfab/XKIT/xh018/cadence/v10_0/spectre/v10_0_2/lpmos/models/mos/pmma.scs
Reading file:  /opt/pdk/xfab/XKIT/xh018/cadence/v10_0/spectre/v10_0_2/lpmos/models/mos/jf_pmma.scs
Reading file:  /opt/pdk/xfab/XKIT/xh018/cadence/v10_0/spectre/v10_0_2/lpmos/models/mos/pmma_bjt.scs
Reading file:  /opt/pdk/xfab/XKIT/xh018/cadence/v10_0/spectre/v10_0_2/lpmos/models/mos/nedi.scs
Reading file:  /opt/pdk/xfab/XKIT/xh018/cadence/v10_0/spectre/v10_0_2/lpmos/models/mos/nedi_bjt.scs
Reading file:  /opt/pdk/xfab/XKIT/xh018/cadence/v10_0/spectre/v10_0_2/lpmos/models/mos/nedia.scs
Reading file:  /opt/pdk/xfab/XKIT/xh018/cadence/v10_0/spectre/v10_0_2/lpmos/models/mos/nedia_bjt.scs
Reading file:  /opt/pdk/xfab/XKIT/xh018/cadence/v10_0/spectre/v10_0_2/lpmos/models/mos/ped2.scs
Reading file:  /opt/pdk/xfab/XKIT/xh018/cadence/v10_0/spectre/v10_0_2/lpmos/models/mos/ped2_bjt.scs
Reading file:  /opt/pdk/xfab/XKIT/xh018/cadence/v10_0/spectre/v10_0_2/lpmos/models/mos/ped.scs
Reading file:  /opt/pdk/xfab/XKIT/xh018/cadence/v10_0/spectre/v10_0_2/lpmos/models/mos/ped_bjt.scs
Reading file:  /opt/pdk/xfab/XKIT/xh018/cadence/v10_0/spectre/v10_0_2/lpmos/models/mos/nhv.scs
Reading file:  /opt/pdk/xfab/XKIT/xh018/cadence/v10_0/spectre/v10_0_2/lpmos/models/mos/nhv_mos2.scs
Reading file:  /opt/pdk/xfab/XKIT/xh018/cadence/v10_0/spectre/v10_0_2/lpmos/models/mos/nhv_bjt.scs
Reading file:  /opt/pdk/xfab/XKIT/xh018/cadence/v10_0/spectre/v10_0_2/lpmos/models/mos/nhhv.scs
Reading file:  /opt/pdk/xfab/XKIT/xh018/cadence/v10_0/spectre/v10_0_2/lpmos/models/mos/nhhv_mos2.scs
Reading file:  /opt/pdk/xfab/XKIT/xh018/cadence/v10_0/spectre/v10_0_2/lpmos/models/mos/nhhv_bjt.scs
Reading file:  /opt/pdk/xfab/XKIT/xh018/cadence/v10_0/spectre/v10_0_2/lpmos/models/mos/nmmc.scs
Reading file:  /opt/pdk/xfab/XKIT/xh018/cadence/v10_0/spectre/v10_0_2/lpmos/models/mos/nmmc_mos2.scs
Reading file:  /opt/pdk/xfab/XKIT/xh018/cadence/v10_0/spectre/v10_0_2/lpmos/models/mos/nmmc_bjt.scs
Reading file:  /opt/pdk/xfab/XKIT/xh018/cadence/v10_0/spectre/v10_0_2/lpmos/models/mos/nmmd.scs
Reading file:  /opt/pdk/xfab/XKIT/xh018/cadence/v10_0/spectre/v10_0_2/lpmos/models/mos/nmmd_mos2.scs
Reading file:  /opt/pdk/xfab/XKIT/xh018/cadence/v10_0/spectre/v10_0_2/lpmos/models/mos/nmmd_bjt.scs
Reading file:  /opt/pdk/xfab/XKIT/xh018/cadence/v10_0/spectre/v10_0_2/lpmos/models/mos/nmc.scs
Reading file:  /opt/pdk/xfab/XKIT/xh018/cadence/v10_0/spectre/v10_0_2/lpmos/models/mos/nmc_mos2.scs
Reading file:  /opt/pdk/xfab/XKIT/xh018/cadence/v10_0/spectre/v10_0_2/lpmos/models/mos/nmc_bjt.scs
Reading file:  /opt/pdk/xfab/XKIT/xh018/cadence/v10_0/spectre/v10_0_2/lpmos/models/mos/nma.scs
Reading file:  /opt/pdk/xfab/XKIT/xh018/cadence/v10_0/spectre/v10_0_2/lpmos/models/mos/nma_bjt.scs
Reading file:  /opt/pdk/xfab/XKIT/xh018/cadence/v10_0/spectre/v10_0_2/lpmos/models/mos/phv.scs
Reading file:  /opt/pdk/xfab/XKIT/xh018/cadence/v10_0/spectre/v10_0_2/lpmos/models/mos/phv_mos2.scs
Reading file:  /opt/pdk/xfab/XKIT/xh018/cadence/v10_0/spectre/v10_0_2/lpmos/models/mos/phv_bjt.scs
Reading file:  /opt/pdk/xfab/XKIT/xh018/cadence/v10_0/spectre/v10_0_2/lpmos/models/mos/phhv.scs
Reading file:  /opt/pdk/xfab/XKIT/xh018/cadence/v10_0/spectre/v10_0_2/lpmos/models/mos/phhv_mos2.scs
Reading file:  /opt/pdk/xfab/XKIT/xh018/cadence/v10_0/spectre/v10_0_2/lpmos/models/mos/phhv_bjt.scs
Reading file:  /opt/pdk/xfab/XKIT/xh018/cadence/v10_0/spectre/v10_0_2/lpmos/models/mos/pmc.scs
Reading file:  /opt/pdk/xfab/XKIT/xh018/cadence/v10_0/spectre/v10_0_2/lpmos/models/mos/pmc_mos2.scs
Reading file:  /opt/pdk/xfab/XKIT/xh018/cadence/v10_0/spectre/v10_0_2/lpmos/models/mos/pmc_bjt.scs
Reading file:  /opt/pdk/xfab/XKIT/xh018/cadence/v10_0/spectre/v10_0_2/lpmos/models/mos/pmmc.scs
Reading file:  /opt/pdk/xfab/XKIT/xh018/cadence/v10_0/spectre/v10_0_2/lpmos/models/mos/pmmc_mos2.scs
Reading file:  /opt/pdk/xfab/XKIT/xh018/cadence/v10_0/spectre/v10_0_2/lpmos/models/mos/pmmc_bjt.scs
Reading file:  /opt/pdk/xfab/XKIT/xh018/cadence/v10_0/spectre/v10_0_2/lpmos/models/mos/pma.scs
Reading file:  /opt/pdk/xfab/XKIT/xh018/cadence/v10_0/spectre/v10_0_2/lpmos/models/mos/pma_bjt.scs
Reading file:  /opt/pdk/xfab/XKIT/xh018/cadence/v10_0/spectre/v10_0_2/lpmos/models/mos/pmb.scs
Reading file:  /opt/pdk/xfab/XKIT/xh018/cadence/v10_0/spectre/v10_0_2/lpmos/models/mos/nesvt.scs
Reading file:  /opt/pdk/xfab/XKIT/xh018/cadence/v10_0/spectre/v10_0_2/lpmos/models/mos/nesvti.scs
Reading file:  /opt/pdk/xfab/XKIT/xh018/cadence/v10_0/spectre/v10_0_2/lpmos/models/mos/nesvti_6.scs
Reading file:  /opt/pdk/xfab/XKIT/xh018/cadence/v10_0/spectre/v10_0_2/lpmos/models/mos/nesvti_m_6.scs
Reading file:  /opt/pdk/xfab/XKIT/xh018/cadence/v10_0/spectre/v10_0_2/lpmos/models/mos/pesvt.scs
Reading file:  /opt/pdk/xfab/XKIT/xh018/cadence/v10_0/spectre/v10_0_2/lpmos/models/mos/pesvt_5.scs
Reading file:  /opt/pdk/xfab/XKIT/xh018/cadence/v10_0/spectre/v10_0_2/lpmos/models/mos/pesvti.scs
Reading file:  /opt/pdk/xfab/XKIT/xh018/cadence/v10_0/spectre/v10_0_2/lpmos/models/mos/pesvti_5.scs
Reading file:  /opt/pdk/xfab/XKIT/xh018/cadence/v10_0/spectre/v10_0_2/lpmos/models/mos/pesvti_m_5.scs
Reading file:  /opt/pdk/xfab/XKIT/xh018/cadence/v10_0/spectre/v10_0_2/lpmos/models/mos/nhvd.scs
Reading file:  /opt/pdk/xfab/XKIT/xh018/cadence/v10_0/spectre/v10_0_2/lpmos/models/mos/nhvd_bjt.scs
Reading file:  /opt/pdk/xfab/XKIT/xh018/cadence/v10_0/spectre/v10_0_2/lpmos/models/mos/nhhvd.scs
Reading file:  /opt/pdk/xfab/XKIT/xh018/cadence/v10_0/spectre/v10_0_2/lpmos/models/mos/nhhvd_bjt.scs
Reading file:  /opt/pdk/xfab/XKIT/xh018/cadence/v10_0/spectre/v10_0_2/lpmos/photo.scs
Reading file:  /opt/pdk/xfab/XKIT/xh018/cadence/v10_0/spectre/v10_0_2/lpmos/models/photo/tm_pho.scs
Reading file:  /opt/pdk/xfab/XKIT/xh018/cadence/v10_0/spectre/v10_0_2/lpmos/models/photo/dphoa.scs
Reading file:  /opt/pdk/xfab/XKIT/xh018/cadence/v10_0/spectre/v10_0_2/lpmos/models/photo/dpho.va
Reading link:  /opt/tools/cadence/installs/SPECTRE241/tools.lnx86/spectre/etc/ahdl/constants.h
Reading file:  /opt/tools/cadence/installs/SPECTRE241/tools.lnx86/spectre/etc/ahdl/constants.vams
Reading link:  /opt/tools/cadence/installs/SPECTRE241/tools.lnx86/spectre/etc/ahdl/discipline.h
Reading file:  /opt/tools/cadence/installs/SPECTRE241/tools.lnx86/spectre/etc/ahdl/disciplines.vams
Reading file:  /opt/pdk/xfab/XKIT/xh018/cadence/v10_0/spectre/v10_0_2/lpmos/models/photo/dphob.scs
Reading file:  /opt/pdk/xfab/XKIT/xh018/cadence/v10_0/spectre/v10_0_2/lpmos/models/photo/dphoc.scs
Reading file:  /opt/pdk/xfab/XKIT/xh018/cadence/v10_0/spectre/v10_0_2/lpmos/models/photo/iphoto_uv.va
Reading file:  /opt/pdk/xfab/XKIT/xh018/cadence/v10_0/spectre/v10_0_2/lpmos/models/photo/dphoc_cat.scs
Reading file:  /opt/pdk/xfab/XKIT/xh018/cadence/v10_0/spectre/v10_0_2/lpmos/models/photo/dphoc0.scs
Reading file:  /opt/pdk/xfab/XKIT/xh018/cadence/v10_0/spectre/v10_0_2/lpmos/models/photo/dphoc0_cat.scs
Reading file:  /opt/pdk/xfab/XKIT/xh018/cadence/v10_0/spectre/v10_0_2/lpmos/models/photo/dphocfp.scs
Reading file:  /opt/pdk/xfab/XKIT/xh018/cadence/v10_0/spectre/v10_0_2/lpmos/models/photo/dphocfp_cat.scs
Reading file:  /opt/pdk/xfab/XKIT/xh018/cadence/v10_0/spectre/v10_0_2/lpmos/models/photo/dphod.scs
Reading file:  /opt/pdk/xfab/XKIT/xh018/cadence/v10_0/spectre/v10_0_2/lpmos/models/photo/dphod_an1.scs
Reading file:  /opt/pdk/xfab/XKIT/xh018/cadence/v10_0/spectre/v10_0_2/lpmos/models/photo/dphod_an2.scs
Reading file:  /opt/pdk/xfab/XKIT/xh018/cadence/v10_0/spectre/v10_0_2/lpmos/models/photo/dphod0.scs
Reading file:  /opt/pdk/xfab/XKIT/xh018/cadence/v10_0/spectre/v10_0_2/lpmos/models/photo/dphod0_an1.scs
Reading file:  /opt/pdk/xfab/XKIT/xh018/cadence/v10_0/spectre/v10_0_2/lpmos/models/photo/dphod0_an2.scs
Reading file:  /opt/pdk/xfab/XKIT/xh018/cadence/v10_0/spectre/v10_0_2/lpmos/models/photo/dphodfp.scs
Reading file:  /opt/pdk/xfab/XKIT/xh018/cadence/v10_0/spectre/v10_0_2/lpmos/models/photo/dphodfp_an1.scs
Reading file:  /opt/pdk/xfab/XKIT/xh018/cadence/v10_0/spectre/v10_0_2/lpmos/models/photo/dphodfp_an2.scs
Reading file:  /opt/pdk/xfab/XKIT/xh018/cadence/v10_0/spectre/v10_0_2/lpmos/models/photo/dspada0.scs
Reading file:  /opt/pdk/xfab/XKIT/xh018/cadence/v10_0/spectre/v10_0_2/lpmos/models/photo/ispad.va
Reading file:  /opt/pdk/xfab/XKIT/xh018/cadence/v10_0/spectre/v10_0_2/lpmos/models/photo/dapb.scs
Reading file:  /opt/pdk/xfab/XKIT/xh018/cadence/v10_0/spectre/v10_0_2/lpmos/models/photo/iphoto_apd_trig.va
Reading file:  /opt/pdk/xfab/XKIT/xh018/cadence/v10_0/spectre/v10_0_2/lpmos/models/photo/dapb_jun.scs
Reading file:  /opt/pdk/xfab/XKIT/xh018/cadence/v10_0/spectre/v10_0_2/lpmos/models/photo/dapb_trig.scs
Reading file:  /opt/pdk/xfab/XKIT/xh018/cadence/v10_0/spectre/v10_0_2/lpmos/models/photo/dapb0.scs
Reading file:  /opt/pdk/xfab/XKIT/xh018/cadence/v10_0/spectre/v10_0_2/lpmos/models/photo/dapb0_jun.scs
Reading file:  /opt/pdk/xfab/XKIT/xh018/cadence/v10_0/spectre/v10_0_2/lpmos/models/photo/dspb.scs
Reading file:  /opt/pdk/xfab/XKIT/xh018/cadence/v10_0/spectre/v10_0_2/lpmos/models/photo/ispad_trig.va
Reading file:  /opt/pdk/xfab/XKIT/xh018/cadence/v10_0/spectre/v10_0_2/lpmos/models/photo/dspb_jun.scs
Reading file:  /opt/pdk/xfab/XKIT/xh018/cadence/v10_0/spectre/v10_0_2/lpmos/models/photo/dspb_trig.scs
Reading file:  /opt/pdk/xfab/XKIT/xh018/cadence/v10_0/spectre/v10_0_2/lpmos/models/photo/dspb0.scs
Reading file:  /opt/pdk/xfab/XKIT/xh018/cadence/v10_0/spectre/v10_0_2/lpmos/models/photo/dspb0_jun.scs
Reading file:  /opt/pdk/xfab/XKIT/xh018/cadence/v10_0/spectre/v10_0_2/lpmos/models/photo/dspbfep.scs
Reading file:  /opt/pdk/xfab/XKIT/xh018/cadence/v10_0/spectre/v10_0_2/lpmos/models/photo/dapda.scs
Reading file:  /opt/pdk/xfab/XKIT/xh018/cadence/v10_0/spectre/v10_0_2/lpmos/models/photo/iphoto_apd.va
Reading file:  /opt/pdk/xfab/XKIT/xh018/cadence/v10_0/spectre/v10_0_2/lpmos/models/photo/dapda_cat.scs
Reading file:  /opt/pdk/xfab/XKIT/xh018/cadence/v10_0/spectre/v10_0_2/lpmos/models/photo/dapda0.scs
Reading file:  /opt/pdk/xfab/XKIT/xh018/cadence/v10_0/spectre/v10_0_2/lpmos/models/photo/dspada.scs
Reading file:  /opt/pdk/xfab/XKIT/xh018/cadence/v10_0/spectre/v10_0_2/lpmos/models/photo/dspada_cat.scs
Reading file:  /opt/pdk/xfab/XKIT/xh018/cadence/v10_0/spectre/v10_0_2/lpmos/res.scs
Reading file:  /opt/pdk/xfab/XKIT/xh018/cadence/v10_0/spectre/v10_0_2/lpmos/models/res/tm_res.scs
Reading file:  /opt/pdk/xfab/XKIT/xh018/cadence/v10_0/spectre/v10_0_2/lpmos/models/res/rdn.scs
Reading file:  /opt/pdk/xfab/XKIT/xh018/cadence/v10_0/spectre/v10_0_2/lpmos/models/res/rdn_esd.scs
Reading file:  /opt/pdk/xfab/XKIT/xh018/cadence/v10_0/spectre/v10_0_2/lpmos/models/res/rdp.scs
Reading file:  /opt/pdk/xfab/XKIT/xh018/cadence/v10_0/spectre/v10_0_2/lpmos/models/res/rdp_io.scs
Reading file:  /opt/pdk/xfab/XKIT/xh018/cadence/v10_0/spectre/v10_0_2/lpmos/models/res/rdp_esd.scs
Reading file:  /opt/pdk/xfab/XKIT/xh018/cadence/v10_0/spectre/v10_0_2/lpmos/models/res/rnw.scs
Reading file:  /opt/pdk/xfab/XKIT/xh018/cadence/v10_0/spectre/v10_0_2/lpmos/models/res/rnw_scr.scs
Reading file:  /opt/pdk/xfab/XKIT/xh018/cadence/v10_0/spectre/v10_0_2/lpmos/models/res/rdn3.scs
Reading file:  /opt/pdk/xfab/XKIT/xh018/cadence/v10_0/spectre/v10_0_2/lpmos/models/res/rdp3.scs
Reading file:  /opt/pdk/xfab/XKIT/xh018/cadence/v10_0/spectre/v10_0_2/lpmos/models/res/rnw3.scs
Reading file:  /opt/pdk/xfab/XKIT/xh018/cadence/v10_0/spectre/v10_0_2/lpmos/models/res/rnw3_scr.scs
Reading file:  /opt/pdk/xfab/XKIT/xh018/cadence/v10_0/spectre/v10_0_2/lpmos/models/res/rdnwmv.scs
Reading file:  /opt/pdk/xfab/XKIT/xh018/cadence/v10_0/spectre/v10_0_2/lpmos/models/res/rnp1.scs
Reading file:  /opt/pdk/xfab/XKIT/xh018/cadence/v10_0/spectre/v10_0_2/lpmos/models/res/rnp1_3.scs
Reading file:  /opt/pdk/xfab/XKIT/xh018/cadence/v10_0/spectre/v10_0_2/lpmos/models/res/rpp1.scs
Reading file:  /opt/pdk/xfab/XKIT/xh018/cadence/v10_0/spectre/v10_0_2/lpmos/models/res/rpp1_3.scs
Reading file:  /opt/pdk/xfab/XKIT/xh018/cadence/v10_0/spectre/v10_0_2/lpmos/models/res/rpp1s.scs
Reading file:  /opt/pdk/xfab/XKIT/xh018/cadence/v10_0/spectre/v10_0_2/lpmos/models/res/rpp1s_3.scs
Reading file:  /opt/pdk/xfab/XKIT/xh018/cadence/v10_0/spectre/v10_0_2/lpmos/models/res/rnp1h.scs
Reading file:  /opt/pdk/xfab/XKIT/xh018/cadence/v10_0/spectre/v10_0_2/lpmos/models/res/rnp1h_3.scs
Reading file:  /opt/pdk/xfab/XKIT/xh018/cadence/v10_0/spectre/v10_0_2/lpmos/models/res/rpp1k1.scs
Reading file:  /opt/pdk/xfab/XKIT/xh018/cadence/v10_0/spectre/v10_0_2/lpmos/models/res/rpp1k1_3.scs
Reading file:  /opt/pdk/xfab/XKIT/xh018/cadence/v10_0/spectre/v10_0_2/lpmos/models/res/rctdn.scs
Reading file:  /opt/pdk/xfab/XKIT/xh018/cadence/v10_0/spectre/v10_0_2/lpmos/models/res/rctdp.scs
Reading file:  /opt/pdk/xfab/XKIT/xh018/cadence/v10_0/spectre/v10_0_2/lpmos/models/res/rctp1.scs
Reading file:  /opt/pdk/xfab/XKIT/xh018/cadence/v10_0/spectre/v10_0_2/lpmos/models/res/rsildn.scs
Reading file:  /opt/pdk/xfab/XKIT/xh018/cadence/v10_0/spectre/v10_0_2/lpmos/models/res/rsildp.scs
Reading file:  /opt/pdk/xfab/XKIT/xh018/cadence/v10_0/spectre/v10_0_2/lpmos/models/res/rsilnp1.scs
Reading file:  /opt/pdk/xfab/XKIT/xh018/cadence/v10_0/spectre/v10_0_2/lpmos/models/res/rsilpp1.scs
Reading file:  /opt/pdk/xfab/XKIT/xh018/cadence/v10_0/spectre/v10_0_2/lpmos/models/res/rsbdn.scs
Reading file:  /opt/pdk/xfab/XKIT/xh018/cadence/v10_0/spectre/v10_0_2/lpmos/models/res/rsbdp.scs
Reading file:  /opt/pdk/xfab/XKIT/xh018/cadence/v10_0/spectre/v10_0_2/lpmos/models/res/rsbdn3.scs
Reading file:  /opt/pdk/xfab/XKIT/xh018/cadence/v10_0/spectre/v10_0_2/lpmos/models/res/rsbdp3.scs
Reading file:  /opt/pdk/xfab/XKIT/xh018/cadence/v10_0/spectre/v10_0_2/lpmos/models/res/rsbnp1.scs
Reading file:  /opt/pdk/xfab/XKIT/xh018/cadence/v10_0/spectre/v10_0_2/lpmos/models/res/rsbpp1.scs
Reading file:  /opt/pdk/xfab/XKIT/xh018/cadence/v10_0/spectre/v10_0_2/lpmos/models/res/rsbpp1k1.scs
Reading file:  /opt/pdk/xfab/XKIT/xh018/cadence/v10_0/spectre/v10_0_2/lpmos/models/res/rm1.scs
Reading file:  /opt/pdk/xfab/XKIT/xh018/cadence/v10_0/spectre/v10_0_2/lpmos/models/res/rm2.scs
Reading file:  /opt/pdk/xfab/XKIT/xh018/cadence/v10_0/spectre/v10_0_2/lpmos/models/res/rm3.scs
Reading file:  /opt/pdk/xfab/XKIT/xh018/cadence/v10_0/spectre/v10_0_2/lpmos/models/res/rm4.scs
Reading file:  /opt/pdk/xfab/XKIT/xh018/cadence/v10_0/spectre/v10_0_2/lpmos/models/res/rm5.scs
Reading file:  /opt/pdk/xfab/XKIT/xh018/cadence/v10_0/spectre/v10_0_2/lpmos/models/res/rmtp.scs
Reading file:  /opt/pdk/xfab/XKIT/xh018/cadence/v10_0/spectre/v10_0_2/lpmos/models/res/rmtpl.scs
Reading file:  /opt/pdk/xfab/XKIT/xh018/cadence/v10_0/spectre/v10_0_2/lpmos/models/res/pfuse.scs
Reading file:  /opt/pdk/xfab/XKIT/xh018/cadence/v10_0/spectre/v10_0_2/lpmos/models/res/s_res.scs
Time for NDB Parsing: CPU = 175.072 ms, elapsed = 514.707 ms.
Time accumulated: CPU = 326.1 ms, elapsed = 514.709 ms.
Peak resident memory used = 201 Mbytes.

Time for Elaboration: CPU = 12.849 ms, elapsed = 12.9411 ms.
Time accumulated: CPU = 339.032 ms, elapsed = 527.774 ms.
Peak resident memory used = 212 Mbytes.


Notice from spectre during hierarchy flattening.
    The value 'psf' specified for the 'checklimitdest' option will no longer be supported in future releases. Use 'spectre -h' to see other recommended values for the 'checklimitdest' option.


Time for EDB Visiting: CPU = 436 us, elapsed = 473.022 us.
Time accumulated: CPU = 339.571 ms, elapsed = 528.402 ms.
Peak resident memory used = 213 Mbytes.


Notice from spectre during initial setup.
    Multithreading is disabled due to the size of the design being too small.


Netlist title:
        // Point Netlist Generated on: Nov  9 15:18:46 2025


Global user options:
         psfversion = 1.4.0
            vabstol = 1e-06
            iabstol = 1e-12
               temp = 27
               gmin = 1e-12
             rforce = 1
           maxnotes = 5
           maxwarns = 5
             digits = 5
               cols = 80
             pivrel = 0.001
           sensfile = ../psf/sens.output
     checklimitdest = psf
               save = allpub
             reltol = 0.001
               tnom = 27
             scalem = 1
              scale = 1

Scoped user options:

Circuit inventory:
              nodes 5
          capacitor 5     
             iprobe 1     
            isource 1     
           resistor 4     
               vccs 1     
            vsource 1     

Analysis and control statement inventory:
               info 6     
                 pz 1     

Output statements:
             .probe 0     
           .measure 0     
               save 0     


Notice from spectre during initial setup.
    APS enabled.

Time for parsing: CPU = 1.724 ms, elapsed = 14.642 ms.
Time accumulated: CPU = 341.376 ms, elapsed = 543.187 ms.
Peak resident memory used = 216 Mbytes.

~~~~~~~~~~~~~~~~~~~~~~
Pre-Simulation Summary
~~~~~~~~~~~~~~~~~~~~~~
   -   (APS) Multi-threading. The recommended number of threads is 1, consider adding +mt=1 on command line.
~~~~~~~~~~~~~~~~~~~~~~

**************************************
PZ Analysis `pz': gm1 = (0 -> 227e-06)
**************************************
Convergence achieved in 2 iterations.
DC simulation time: CPU = 421 us, elapsed = 648.975 us.

Opening the PSF file ../psf/pz.pz ...

0              0.00% 
Convergence achieved in 2 iterations.
DC simulation time: CPU = 108 us, elapsed = 123.024 us.
                      Poles (Hz)

           Real                       Imaginary                 Qfactor

   1   -3.80823e+07                  0.00000e+00              5.00000e-01 
   2   -7.21674e+08                  0.00000e+00              5.00000e-01 

                      Zeros (Hz)
                      at I(IPRB0:in)/V0

           Real                       Imaginary                 Qfactor

   1    0.00000e+00                  0.00000e+00              nan         
   2   -9.61436e+06                  0.00000e+00              5.00000e-01 

Constant factor =  4.76190e-04

DC gain =  2.65129e-14


4.54e-06       2.00% 
Convergence achieved in 2 iterations.
DC simulation time: CPU = 134 us, elapsed = 154.018 us.
                      Poles (Hz)

           Real                       Imaginary                 Qfactor

   1   -3.98861e+07                  0.00000e+00              5.00000e-01 
   2   -7.20304e+08                  0.00000e+00              5.00000e-01 

                      Zeros (Hz)
                      at I(IPRB0:in)/V0

           Real                       Imaginary                 Qfactor

   1    1.19210e+07                  0.00000e+00              -5.00000e-01
   2   -2.19698e+07                  0.00000e+00              5.00000e-01 

Constant factor =  4.76190e-04

DC gain =  4.34092e-06

.
9.08e-06       4.00% 
Convergence achieved in 2 iterations.
DC simulation time: CPU = 72 us, elapsed = 87.0228 us.
                      Poles (Hz)

           Real                       Imaginary                 Qfactor

   1   -4.16972e+07                  0.00000e+00              5.00000e-01 
   2   -7.18928e+08                  0.00000e+00              5.00000e-01 

                      Zeros (Hz)
                      at I(IPRB0:in)/V0

           Real                       Imaginary                 Qfactor

   1    1.82377e+07                  0.00000e+00              -5.00000e-01
   2   -2.87209e+07                  0.00000e+00              5.00000e-01 

Constant factor =  4.76190e-04

DC gain =  8.32065e-06

...
13.62e-06      6.00% 
Convergence achieved in 2 iterations.
DC simulation time: CPU = 70 us, elapsed = 84.1618 us.
                      Poles (Hz)

           Real                       Imaginary                 Qfactor

   1   -4.35157e+07                  0.00000e+00              5.00000e-01 
   2   -7.17544e+08                  0.00000e+00              5.00000e-01 

                      Zeros (Hz)
                      at I(IPRB0:in)/V0

           Real                       Imaginary                 Qfactor

   1    2.30982e+07                  0.00000e+00              -5.00000e-01
   2   -3.40159e+07                  0.00000e+00              5.00000e-01 

Constant factor =  4.76190e-04

DC gain =  1.19825e-05

....
18.16e-06      8.00% 
Convergence achieved in 2 iterations.
DC simulation time: CPU = 107 us, elapsed = 126.123 us.
                      Poles (Hz)

           Real                       Imaginary                 Qfactor

   1   -4.53417e+07                  0.00000e+00              5.00000e-01 
   2   -7.16152e+08                  0.00000e+00              5.00000e-01 

                      Zeros (Hz)
                      at I(IPRB0:in)/V0

           Real                       Imaginary                 Qfactor

   1    2.71847e+07                  0.00000e+00              -5.00000e-01
   2   -3.85367e+07                  0.00000e+00              5.00000e-01 

Constant factor =  4.76190e-04

DC gain =  1.53630e-05

......
22.7e-06      10.00% 
Convergence achieved in 2 iterations.
DC simulation time: CPU = 114 us, elapsed = 139.952 us.
                      Poles (Hz)

           Real                       Imaginary                 Qfactor

   1   -4.71754e+07                  0.00000e+00              5.00000e-01 
   2   -7.14753e+08                  0.00000e+00              5.00000e-01 

                      Zeros (Hz)
                      at I(IPRB0:in)/V0

           Real                       Imaginary                 Qfactor

   1    3.07706e+07                  0.00000e+00              -5.00000e-01
   2   -4.25572e+07                  0.00000e+00              5.00000e-01 

Constant factor =  4.76190e-04

DC gain =  1.84935e-05

......9
27.24e-06     12.00% 
Convergence achieved in 2 iterations.
DC simulation time: CPU = 108 us, elapsed = 133.038 us.
                      Poles (Hz)

           Real                       Imaginary                 Qfactor

   1   -4.90167e+07                  0.00000e+00              5.00000e-01 
   2   -7.13346e+08                  0.00000e+00              5.00000e-01 

                      Zeros (Hz)
                      at I(IPRB0:in)/V0

           Real                       Imaginary                 Qfactor

   1    3.39987e+07                  0.00000e+00              -5.00000e-01
   2   -4.62197e+07                  0.00000e+00              5.00000e-01 

Constant factor =  4.76190e-04

DC gain =  2.14006e-05

......9.
31.78e-06     14.00% 
Convergence achieved in 2 iterations.
DC simulation time: CPU = 97 us, elapsed = 108.957 us.
                      Poles (Hz)

           Real                       Imaginary                 Qfactor

   1   -5.08659e+07                  0.00000e+00              5.00000e-01 
   2   -7.11931e+08                  0.00000e+00              5.00000e-01 

                      Zeros (Hz)
                      at I(IPRB0:in)/V0

           Real                       Imaginary                 Qfactor

   1    3.69546e+07                  0.00000e+00              -5.00000e-01
   2   -4.96100e+07                  0.00000e+00              5.00000e-01 

Constant factor =  4.76190e-04

DC gain =  2.41075e-05

......9...
36.32e-06     16.00% 
Convergence achieved in 2 iterations.
DC simulation time: CPU = 89 us, elapsed = 102.997 us.
                      Poles (Hz)

           Real                       Imaginary                 Qfactor

   1   -5.27231e+07                  0.00000e+00              5.00000e-01 
   2   -7.10508e+08                  0.00000e+00              5.00000e-01 

                      Zeros (Hz)
                      at I(IPRB0:in)/V0

           Real                       Imaginary                 Qfactor

   1    3.96942e+07                  0.00000e+00              -5.00000e-01
   2   -5.27840e+07                  0.00000e+00              5.00000e-01 

Constant factor =  4.76190e-04

DC gain =  2.66342e-05

......9....
40.86e-06     18.00% 
Convergence achieved in 2 iterations.
DC simulation time: CPU = 103 us, elapsed = 128.031 us.
                      Poles (Hz)

           Real                       Imaginary                 Qfactor

   1   -5.45883e+07                  0.00000e+00              5.00000e-01 
   2   -7.09078e+08                  0.00000e+00              5.00000e-01 

                      Zeros (Hz)
                      at I(IPRB0:in)/V0

           Real                       Imaginary                 Qfactor

   1    4.22567e+07                  0.00000e+00              -5.00000e-01
   2   -5.57809e+07                  0.00000e+00              5.00000e-01 

Constant factor =  4.76190e-04

DC gain =  2.89980e-05

......9......
45.4e-06      20.00% 
Convergence achieved in 2 iterations.
DC simulation time: CPU = 79 us, elapsed = 119.925 us.
                      Poles (Hz)

           Real                       Imaginary                 Qfactor

   1   -5.64617e+07                  0.00000e+00              5.00000e-01 
   2   -7.07639e+08                  0.00000e+00              5.00000e-01 

                      Zeros (Hz)
                      at I(IPRB0:in)/V0

           Real                       Imaginary                 Qfactor

   1    4.46707e+07                  0.00000e+00              -5.00000e-01
   2   -5.86294e+07                  0.00000e+00              5.00000e-01 

Constant factor =  4.76190e-04

DC gain =  3.12143e-05

......9......8
49.94e-06     22.00% 
Convergence achieved in 2 iterations.
DC simulation time: CPU = 83 us, elapsed = 104.904 us.
                      Poles (Hz)

           Real                       Imaginary                 Qfactor

   1   -5.83435e+07                  0.00000e+00              5.00000e-01 
   2   -7.06191e+08                  0.00000e+00              5.00000e-01 

                      Zeros (Hz)
                      at I(IPRB0:in)/V0

           Real                       Imaginary                 Qfactor

   1    4.69580e+07                  0.00000e+00              -5.00000e-01
   2   -6.13511e+07                  0.00000e+00              5.00000e-01 

Constant factor =  4.76190e-04

DC gain =  3.32964e-05

......9......8.
54.48e-06     24.00% 
Convergence achieved in 2 iterations.
DC simulation time: CPU = 71 us, elapsed = 87.0228 us.
                      Poles (Hz)

           Real                       Imaginary                 Qfactor

   1   -6.02337e+07                  0.00000e+00              5.00000e-01 
   2   -7.04736e+08                  0.00000e+00              5.00000e-01 

                      Zeros (Hz)
                      at I(IPRB0:in)/V0

           Real                       Imaginary                 Qfactor

   1    4.91352e+07                  0.00000e+00              -5.00000e-01
   2   -6.39628e+07                  0.00000e+00              5.00000e-01 

Constant factor =  4.76190e-04

DC gain =  3.52562e-05

......9......8...
59.02e-06     26.00% 
Convergence achieved in 2 iterations.
DC simulation time: CPU = 84 us, elapsed = 101.805 us.
                      Poles (Hz)

           Real                       Imaginary                 Qfactor

   1   -6.21324e+07                  0.00000e+00              5.00000e-01 
   2   -7.03271e+08                  0.00000e+00              5.00000e-01 

                      Zeros (Hz)
                      at I(IPRB0:in)/V0

           Real                       Imaginary                 Qfactor

   1    5.12159e+07                  0.00000e+00              -5.00000e-01
   2   -6.64779e+07                  0.00000e+00              5.00000e-01 

Constant factor =  4.76190e-04

DC gain =  3.71041e-05

......9......8....
63.56e-06     28.00% 
Convergence achieved in 2 iterations.
DC simulation time: CPU = 111 us, elapsed = 150.919 us.
                      Poles (Hz)

           Real                       Imaginary                 Qfactor

   1   -6.40399e+07                  0.00000e+00              5.00000e-01 
   2   -7.01798e+08                  0.00000e+00              5.00000e-01 

                      Zeros (Hz)
                      at I(IPRB0:in)/V0

           Real                       Imaginary                 Qfactor

   1    5.32110e+07                  0.00000e+00              -5.00000e-01
   2   -6.89074e+07                  0.00000e+00              5.00000e-01 

Constant factor =  4.76190e-04

DC gain =  3.88494e-05

......9......8......
68.1e-06      30.00% 
Convergence achieved in 2 iterations.
DC simulation time: CPU = 78 us, elapsed = 95.129 us.
                      Poles (Hz)

           Real                       Imaginary                 Qfactor

   1   -6.59563e+07                  0.00000e+00              5.00000e-01 
   2   -7.00316e+08                  0.00000e+00              5.00000e-01 

                      Zeros (Hz)
                      at I(IPRB0:in)/V0

           Real                       Imaginary                 Qfactor

   1    5.51294e+07                  0.00000e+00              -5.00000e-01
   2   -7.12602e+07                  0.00000e+00              5.00000e-01 

Constant factor =  4.76190e-04

DC gain =  4.05005e-05

......9......8......7
72.64e-06     32.00% 
Convergence achieved in 2 iterations.
DC simulation time: CPU = 69 us, elapsed = 82.9697 us.
                      Poles (Hz)

           Real                       Imaginary                 Qfactor

   1   -6.78816e+07                  0.00000e+00              5.00000e-01 
   2   -6.98825e+08                  0.00000e+00              5.00000e-01 

                      Zeros (Hz)
                      at I(IPRB0:in)/V0

           Real                       Imaginary                 Qfactor

   1    5.69786e+07                  0.00000e+00              -5.00000e-01
   2   -7.35439e+07                  0.00000e+00              5.00000e-01 

Constant factor =  4.76190e-04

DC gain =  4.20648e-05

......9......8......7.
77.18e-06     34.00% 
Convergence achieved in 2 iterations.
DC simulation time: CPU = 98 us, elapsed = 1.62005 ms.
                      Poles (Hz)

           Real                       Imaginary                 Qfactor

   1   -6.98161e+07                  0.00000e+00              5.00000e-01 
   2   -6.97325e+08                  0.00000e+00              5.00000e-01 

                      Zeros (Hz)
                      at I(IPRB0:in)/V0

           Real                       Imaginary                 Qfactor

   1    5.87652e+07                  0.00000e+00              -5.00000e-01
   2   -7.57649e+07                  0.00000e+00              5.00000e-01 

Constant factor =  4.76190e-04

DC gain =  4.35489e-05

......9......8......7...
81.72e-06     36.00% 
Convergence achieved in 2 iterations.
DC simulation time: CPU = 113 us, elapsed = 1.29294 ms.
                      Poles (Hz)

           Real                       Imaginary                 Qfactor

   1   -7.17600e+07                  0.00000e+00              5.00000e-01 
   2   -6.95816e+08                  0.00000e+00              5.00000e-01 

                      Zeros (Hz)
                      at I(IPRB0:in)/V0

           Real                       Imaginary                 Qfactor

   1    6.04944e+07                  0.00000e+00              -5.00000e-01
   2   -7.79285e+07                  0.00000e+00              5.00000e-01 

Constant factor =  4.76190e-04

DC gain =  4.49589e-05

......9......8......7....
86.26e-06     38.00% 
Convergence achieved in 2 iterations.
DC simulation time: CPU = 97 us, elapsed = 1.99509 ms.
                      Poles (Hz)

           Real                       Imaginary                 Qfactor

   1   -7.37132e+07                  0.00000e+00              5.00000e-01 
   2   -6.94297e+08                  0.00000e+00              5.00000e-01 

                      Zeros (Hz)
                      at I(IPRB0:in)/V0

           Real                       Imaginary                 Qfactor

   1    6.21710e+07                  0.00000e+00              -5.00000e-01
   2   -8.00396e+07                  0.00000e+00              5.00000e-01 

Constant factor =  4.76190e-04

DC gain =  4.63002e-05

......9......8......7......
90.8e-06      40.00% 
Convergence achieved in 2 iterations.
DC simulation time: CPU = 85 us, elapsed = 1.80602 ms.
                      Poles (Hz)

           Real                       Imaginary                 Qfactor

   1   -7.56761e+07                  0.00000e+00              5.00000e-01 
   2   -6.92769e+08                  0.00000e+00              5.00000e-01 

                      Zeros (Hz)
                      at I(IPRB0:in)/V0

           Real                       Imaginary                 Qfactor

   1    6.37991e+07                  0.00000e+00              -5.00000e-01
   2   -8.21021e+07                  0.00000e+00              5.00000e-01 

Constant factor =  4.76190e-04

DC gain =  4.75776e-05

......9......8......7......6
95.34e-06     42.00% 
Convergence achieved in 2 iterations.
DC simulation time: CPU = 78 us, elapsed = 92.0296 us.
                      Poles (Hz)

           Real                       Imaginary                 Qfactor

   1   -7.76487e+07                  0.00000e+00              5.00000e-01 
   2   -6.91230e+08                  0.00000e+00              5.00000e-01 

                      Zeros (Hz)
                      at I(IPRB0:in)/V0

           Real                       Imaginary                 Qfactor

   1    6.53823e+07                  0.00000e+00              -5.00000e-01
   2   -8.41197e+07                  0.00000e+00              5.00000e-01 

Constant factor =  4.76190e-04

DC gain =  4.87957e-05

......9......8......7......6.
99.88e-06     44.00% 
Convergence achieved in 2 iterations.
DC simulation time: CPU = 76 us, elapsed = 87.9765 us.
                      Poles (Hz)

           Real                       Imaginary                 Qfactor

   1   -7.96314e+07                  0.00000e+00              5.00000e-01 
   2   -6.89682e+08                  0.00000e+00              5.00000e-01 

                      Zeros (Hz)
                      at I(IPRB0:in)/V0

           Real                       Imaginary                 Qfactor

   1    6.69238e+07                  0.00000e+00              -5.00000e-01
   2   -8.60956e+07                  0.00000e+00              5.00000e-01 

Constant factor =  4.76190e-04

DC gain =  4.99585e-05

......9......8......7......6...
104.42e-06    46.00% 
Convergence achieved in 2 iterations.
DC simulation time: CPU = 93 us, elapsed = 1.83511 ms.
                      Poles (Hz)

           Real                       Imaginary                 Qfactor

   1   -8.16241e+07                  0.00000e+00              5.00000e-01 
   2   -6.88124e+08                  0.00000e+00              5.00000e-01 

                      Zeros (Hz)
                      at I(IPRB0:in)/V0

           Real                       Imaginary                 Qfactor

   1    6.84263e+07                  0.00000e+00              -5.00000e-01
   2   -8.80326e+07                  0.00000e+00              5.00000e-01 

Constant factor =  4.76190e-04

DC gain =  5.10696e-05

......9......8......7......6....
108.96e-06    48.00% 
Convergence achieved in 2 iterations.
DC simulation time: CPU = 89 us, elapsed = 1.90997 ms.
                      Poles (Hz)

           Real                       Imaginary                 Qfactor

   1   -8.36271e+07                  0.00000e+00              5.00000e-01 
   2   -6.86555e+08                  0.00000e+00              5.00000e-01 

                      Zeros (Hz)
                      at I(IPRB0:in)/V0

           Real                       Imaginary                 Qfactor

   1    6.98924e+07                  0.00000e+00              -5.00000e-01
   2   -8.99332e+07                  0.00000e+00              5.00000e-01 

Constant factor =  4.76190e-04

DC gain =  5.21325e-05

......9......8......7......6......
113.5e-06     50.00% 
Convergence achieved in 2 iterations.
DC simulation time: CPU = 138 us, elapsed = 155.926 us.
                      Poles (Hz)

           Real                       Imaginary                 Qfactor

   1   -8.56406e+07                  0.00000e+00              5.00000e-01 
   2   -6.84976e+08                  0.00000e+00              5.00000e-01 

                      Zeros (Hz)
                      at I(IPRB0:in)/V0

           Real                       Imaginary                 Qfactor

   1    7.13244e+07                  0.00000e+00              -5.00000e-01
   2   -9.17996e+07                  0.00000e+00              5.00000e-01 

Constant factor =  4.76190e-04

DC gain =  5.31501e-05

......9......8......7......6......5
118.04e-06    52.00% 
Convergence achieved in 2 iterations.
DC simulation time: CPU = 110 us, elapsed = 118.971 us.
                      Poles (Hz)

           Real                       Imaginary                 Qfactor

   1   -8.76648e+07                  0.00000e+00              5.00000e-01 
   2   -6.83386e+08                  0.00000e+00              5.00000e-01 

                      Zeros (Hz)
                      at I(IPRB0:in)/V0

           Real                       Imaginary                 Qfactor

   1    7.27242e+07                  0.00000e+00              -5.00000e-01
   2   -9.36339e+07                  0.00000e+00              5.00000e-01 

Constant factor =  4.76190e-04

DC gain =  5.41254e-05

......9......8......7......6......5.
122.58e-06    54.00% 
Convergence achieved in 2 iterations.
DC simulation time: CPU = 104 us, elapsed = 117.064 us.
                      Poles (Hz)

           Real                       Imaginary                 Qfactor

   1   -8.96998e+07                  0.00000e+00              5.00000e-01 
   2   -6.81786e+08                  0.00000e+00              5.00000e-01 

                      Zeros (Hz)
                      at I(IPRB0:in)/V0

           Real                       Imaginary                 Qfactor

   1    7.40938e+07                  0.00000e+00              -5.00000e-01
   2   -9.54379e+07                  0.00000e+00              5.00000e-01 

Constant factor =  4.76190e-04

DC gain =  5.50609e-05

......9......8......7......6......5...
127.12e-06    56.00% 
Convergence achieved in 2 iterations.
DC simulation time: CPU = 75 us, elapsed = 87.0228 us.
                      Poles (Hz)

           Real                       Imaginary                 Qfactor

   1   -9.17460e+07                  0.00000e+00              5.00000e-01 
   2   -6.80174e+08                  0.00000e+00              5.00000e-01 

                      Zeros (Hz)
                      at I(IPRB0:in)/V0

           Real                       Imaginary                 Qfactor

   1    7.54348e+07                  0.00000e+00              -5.00000e-01
   2   -9.72132e+07                  0.00000e+00              5.00000e-01 

Constant factor =  4.76190e-04

DC gain =  5.59591e-05

......9......8......7......6......5....
131.66e-06    58.00% 
Convergence achieved in 2 iterations.
DC simulation time: CPU = 79 us, elapsed = 87.0228 us.
                      Poles (Hz)

           Real                       Imaginary                 Qfactor

   1   -9.38034e+07                  0.00000e+00              5.00000e-01 
   2   -6.78551e+08                  0.00000e+00              5.00000e-01 

                      Zeros (Hz)
                      at I(IPRB0:in)/V0

           Real                       Imaginary                 Qfactor

   1    7.67486e+07                  0.00000e+00              -5.00000e-01
   2   -9.89615e+07                  0.00000e+00              5.00000e-01 

Constant factor =  4.76190e-04

DC gain =  5.68220e-05

......9......8......7......6......5......
136.2e-06     60.00% 
Convergence achieved in 2 iterations.
DC simulation time: CPU = 75 us, elapsed = 86.0691 us.
                      Poles (Hz)

           Real                       Imaginary                 Qfactor

   1   -9.58723e+07                  0.00000e+00              5.00000e-01 
   2   -6.76917e+08                  0.00000e+00              5.00000e-01 

                      Zeros (Hz)
                      at I(IPRB0:in)/V0

           Real                       Imaginary                 Qfactor

   1    7.80368e+07                  0.00000e+00              -5.00000e-01
   2   -1.00684e+08                  0.00000e+00              5.00000e-01 

Constant factor =  4.76190e-04

DC gain =  5.76518e-05

......9......8......7......6......5......4
140.74e-06    62.00% 
Convergence achieved in 2 iterations.
DC simulation time: CPU = 64 us, elapsed = 73.9098 us.
                      Poles (Hz)

           Real                       Imaginary                 Qfactor

   1   -9.79529e+07                  0.00000e+00              5.00000e-01 
   2   -6.75271e+08                  0.00000e+00              5.00000e-01 

                      Zeros (Hz)
                      at I(IPRB0:in)/V0

           Real                       Imaginary                 Qfactor

   1    7.93005e+07                  0.00000e+00              -5.00000e-01
   2   -1.02382e+08                  0.00000e+00              5.00000e-01 

Constant factor =  4.76190e-04

DC gain =  5.84502e-05

......9......8......7......6......5......4.
145.28e-06    64.00% 
Convergence achieved in 2 iterations.
DC simulation time: CPU = 59 us, elapsed = 76.0555 us.
                      Poles (Hz)

           Real                       Imaginary                 Qfactor

   1   -1.00045e+08                  0.00000e+00              5.00000e-01 
   2   -6.73612e+08                  0.00000e+00              5.00000e-01 

                      Zeros (Hz)
                      at I(IPRB0:in)/V0

           Real                       Imaginary                 Qfactor

   1    8.05410e+07                  0.00000e+00              -5.00000e-01
   2   -1.04057e+08                  0.00000e+00              5.00000e-01 

Constant factor =  4.76190e-04

DC gain =  5.92191e-05

......9......8......7......6......5......4...
149.82e-06    66.00% 
Convergence achieved in 2 iterations.
DC simulation time: CPU = 61 us, elapsed = 71.0487 us.
                      Poles (Hz)

           Real                       Imaginary                 Qfactor

   1   -1.02150e+08                  0.00000e+00              5.00000e-01 
   2   -6.71942e+08                  0.00000e+00              5.00000e-01 

                      Zeros (Hz)
                      at I(IPRB0:in)/V0

           Real                       Imaginary                 Qfactor

   1    8.17593e+07                  0.00000e+00              -5.00000e-01
   2   -1.05710e+08                  0.00000e+00              5.00000e-01 

Constant factor =  4.76190e-04

DC gain =  5.99601e-05

......9......8......7......6......5......4....
154.36e-06    68.00% 
Convergence achieved in 2 iterations.
DC simulation time: CPU = 73 us, elapsed = 86.0691 us.
                      Poles (Hz)

           Real                       Imaginary                 Qfactor

   1   -1.04267e+08                  0.00000e+00              5.00000e-01 
   2   -6.70259e+08                  0.00000e+00              5.00000e-01 

                      Zeros (Hz)
                      at I(IPRB0:in)/V0

           Real                       Imaginary                 Qfactor

   1    8.29564e+07                  0.00000e+00              -5.00000e-01
   2   -1.07342e+08                  0.00000e+00              5.00000e-01 

Constant factor =  4.76190e-04

DC gain =  6.06747e-05

......9......8......7......6......5......4......
158.9e-06     70.00% 
Convergence achieved in 2 iterations.
DC simulation time: CPU = 85 us, elapsed = 97.99 us.
                      Poles (Hz)

           Real                       Imaginary                 Qfactor

   1   -1.06397e+08                  0.00000e+00              5.00000e-01 
   2   -6.68564e+08                  0.00000e+00              5.00000e-01 

                      Zeros (Hz)
                      at I(IPRB0:in)/V0

           Real                       Imaginary                 Qfactor

   1    8.41334e+07                  0.00000e+00              -5.00000e-01
   2   -1.08953e+08                  0.00000e+00              5.00000e-01 

Constant factor =  4.76190e-04

DC gain =  6.13641e-05

......9......8......7......6......5......4......3
163.44e-06    72.00% 
Convergence achieved in 2 iterations.
DC simulation time: CPU = 89 us, elapsed = 105.858 us.
                      Poles (Hz)

           Real                       Imaginary                 Qfactor

   1   -1.08540e+08                  0.00000e+00              5.00000e-01 
   2   -6.66856e+08                  0.00000e+00              5.00000e-01 

                      Zeros (Hz)
                      at I(IPRB0:in)/V0

           Real                       Imaginary                 Qfactor

   1    8.52909e+07                  0.00000e+00              -5.00000e-01
   2   -1.10545e+08                  0.00000e+00              5.00000e-01 

Constant factor =  4.76190e-04

DC gain =  6.20298e-05

......9......8......7......6......5......4......3.
167.98e-06    74.00% 
Convergence achieved in 2 iterations.
DC simulation time: CPU = 90 us, elapsed = 114.918 us.
                      Poles (Hz)

           Real                       Imaginary                 Qfactor

   1   -1.10696e+08                  0.00000e+00              5.00000e-01 
   2   -6.65134e+08                  0.00000e+00              5.00000e-01 

                      Zeros (Hz)
                      at I(IPRB0:in)/V0

           Real                       Imaginary                 Qfactor

   1    8.64299e+07                  0.00000e+00              -5.00000e-01
   2   -1.12118e+08                  0.00000e+00              5.00000e-01 

Constant factor =  4.76190e-04

DC gain =  6.26730e-05

......9......8......7......6......5......4......3...
172.52e-06    76.00% 
Convergence achieved in 2 iterations.
DC simulation time: CPU = 122 us, elapsed = 133.038 us.
                      Poles (Hz)

           Real                       Imaginary                 Qfactor

   1   -1.12865e+08                  0.00000e+00              5.00000e-01 
   2   -6.63399e+08                  0.00000e+00              5.00000e-01 

                      Zeros (Hz)
                      at I(IPRB0:in)/V0

           Real                       Imaginary                 Qfactor

   1    8.75511e+07                  0.00000e+00              -5.00000e-01
   2   -1.13674e+08                  0.00000e+00              5.00000e-01 

Constant factor =  4.76190e-04

DC gain =  6.32947e-05

......9......8......7......6......5......4......3....
177.06e-06    78.00% 
Convergence achieved in 2 iterations.
DC simulation time: CPU = 90 us, elapsed = 107.05 us.
                      Poles (Hz)

           Real                       Imaginary                 Qfactor

   1   -1.15049e+08                  0.00000e+00              5.00000e-01 
   2   -6.61650e+08                  0.00000e+00              5.00000e-01 

                      Zeros (Hz)
                      at I(IPRB0:in)/V0

           Real                       Imaginary                 Qfactor

   1    8.86552e+07                  0.00000e+00              -5.00000e-01
   2   -1.15212e+08                  0.00000e+00              5.00000e-01 

Constant factor =  4.76190e-04

DC gain =  6.38961e-05

......9......8......7......6......5......4......3......
181.6e-06     80.00% 
Convergence achieved in 2 iterations.
DC simulation time: CPU = 91 us, elapsed = 2.033 ms.
                      Poles (Hz)

           Real                       Imaginary                 Qfactor

   1   -1.17246e+08                  0.00000e+00              5.00000e-01 
   2   -6.59887e+08                  0.00000e+00              5.00000e-01 

                      Zeros (Hz)
                      at I(IPRB0:in)/V0

           Real                       Imaginary                 Qfactor

   1    8.97428e+07                  0.00000e+00              -5.00000e-01
   2   -1.16734e+08                  0.00000e+00              5.00000e-01 

Constant factor =  4.76190e-04

DC gain =  6.44781e-05

......9......8......7......6......5......4......3......2
186.14e-06    82.00% 
Convergence achieved in 2 iterations.
DC simulation time: CPU = 82 us, elapsed = 93.9369 us.
                      Poles (Hz)

           Real                       Imaginary                 Qfactor

   1   -1.19458e+08                  0.00000e+00              5.00000e-01 
   2   -6.58110e+08                  0.00000e+00              5.00000e-01 

                      Zeros (Hz)
                      at I(IPRB0:in)/V0

           Real                       Imaginary                 Qfactor

   1    9.08146e+07                  0.00000e+00              -5.00000e-01
   2   -1.18241e+08                  0.00000e+00              5.00000e-01 

Constant factor =  4.76190e-04

DC gain =  6.50416e-05

......9......8......7......6......5......4......3......2.
190.68e-06    84.00% 
Convergence achieved in 2 iterations.
DC simulation time: CPU = 76 us, elapsed = 92.0296 us.
                      Poles (Hz)

           Real                       Imaginary                 Qfactor

   1   -1.21684e+08                  0.00000e+00              5.00000e-01 
   2   -6.56318e+08                  0.00000e+00              5.00000e-01 

                      Zeros (Hz)
                      at I(IPRB0:in)/V0

           Real                       Imaginary                 Qfactor

   1    9.18711e+07                  0.00000e+00              -5.00000e-01
   2   -1.19732e+08                  0.00000e+00              5.00000e-01 

Constant factor =  4.76190e-04

DC gain =  6.55875e-05

......9......8......7......6......5......4......3......2...
195.22e-06    86.00% 
Convergence achieved in 2 iterations.
DC simulation time: CPU = 82 us, elapsed = 100.136 us.
                      Poles (Hz)

           Real                       Imaginary                 Qfactor

   1   -1.23925e+08                  0.00000e+00              5.00000e-01 
   2   -6.54511e+08                  0.00000e+00              5.00000e-01 

                      Zeros (Hz)
                      at I(IPRB0:in)/V0

           Real                       Imaginary                 Qfactor

   1    9.29130e+07                  0.00000e+00              -5.00000e-01
   2   -1.21208e+08                  0.00000e+00              5.00000e-01 

Constant factor =  4.76190e-04

DC gain =  6.61166e-05

......9......8......7......6......5......4......3......2....
199.76e-06    88.00% 
Convergence achieved in 2 iterations.
DC simulation time: CPU = 77 us, elapsed = 122.07 us.
                      Poles (Hz)

           Real                       Imaginary                 Qfactor

   1   -1.26182e+08                  0.00000e+00              5.00000e-01 
   2   -6.52689e+08                  0.00000e+00              5.00000e-01 

                      Zeros (Hz)
                      at I(IPRB0:in)/V0

           Real                       Imaginary                 Qfactor

   1    9.39406e+07                  0.00000e+00              -5.00000e-01
   2   -1.22670e+08                  0.00000e+00              5.00000e-01 

Constant factor =  4.76190e-04

DC gain =  6.66297e-05

......9......8......7......6......5......4......3......2......
204.3e-06     90.00% 
Convergence achieved in 2 iterations.
DC simulation time: CPU = 107 us, elapsed = 121.117 us.
                      Poles (Hz)

           Real                       Imaginary                 Qfactor

   1   -1.28455e+08                  0.00000e+00              5.00000e-01 
   2   -6.50851e+08                  0.00000e+00              5.00000e-01 

                      Zeros (Hz)
                      at I(IPRB0:in)/V0

           Real                       Imaginary                 Qfactor

   1    9.49545e+07                  0.00000e+00              -5.00000e-01
   2   -1.24118e+08                  0.00000e+00              5.00000e-01 

Constant factor =  4.76190e-04

DC gain =  6.71275e-05

......9......8......7......6......5......4......3......2......1
208.84e-06    92.00% 
Convergence achieved in 2 iterations.
DC simulation time: CPU = 106 us, elapsed = 121.832 us.
                      Poles (Hz)

           Real                       Imaginary                 Qfactor

   1   -1.30743e+08                  0.00000e+00              5.00000e-01 
   2   -6.48997e+08                  0.00000e+00              5.00000e-01 

                      Zeros (Hz)
                      at I(IPRB0:in)/V0

           Real                       Imaginary                 Qfactor

   1    9.59551e+07                  0.00000e+00              -5.00000e-01
   2   -1.25553e+08                  0.00000e+00              5.00000e-01 

Constant factor =  4.76190e-04

DC gain =  6.76107e-05

......9......8......7......6......5......4......3......2......1.
213.38e-06    94.00% 
Convergence achieved in 2 iterations.
DC simulation time: CPU = 95 us, elapsed = 113.01 us.
                      Poles (Hz)

           Real                       Imaginary                 Qfactor

   1   -1.33049e+08                  0.00000e+00              5.00000e-01 
   2   -6.47126e+08                  0.00000e+00              5.00000e-01 

                      Zeros (Hz)
                      at I(IPRB0:in)/V0

           Real                       Imaginary                 Qfactor

   1    9.69429e+07                  0.00000e+00              -5.00000e-01
   2   -1.26976e+08                  0.00000e+00              5.00000e-01 

Constant factor =  4.76190e-04

DC gain =  6.80799e-05

......9......8......7......6......5......4......3......2......1...
217.92e-06    96.00% 
Convergence achieved in 2 iterations.
DC simulation time: CPU = 70 us, elapsed = 92.0296 us.
                      Poles (Hz)

           Real                       Imaginary                 Qfactor

   1   -1.35371e+08                  0.00000e+00              5.00000e-01 
   2   -6.45238e+08                  0.00000e+00              5.00000e-01 

                      Zeros (Hz)
                      at I(IPRB0:in)/V0

           Real                       Imaginary                 Qfactor

   1    9.79184e+07                  0.00000e+00              -5.00000e-01
   2   -1.28385e+08                  0.00000e+00              5.00000e-01 

Constant factor =  4.76190e-04

DC gain =  6.85356e-05

......9......8......7......6......5......4......3......2......1....
222.46e-06    98.00% 
Convergence achieved in 2 iterations.
DC simulation time: CPU = 70 us, elapsed = 82.9697 us.
                      Poles (Hz)

           Real                       Imaginary                 Qfactor

   1   -1.37710e+08                  0.00000e+00              5.00000e-01 
   2   -6.43333e+08                  0.00000e+00              5.00000e-01 

                      Zeros (Hz)
                      at I(IPRB0:in)/V0

           Real                       Imaginary                 Qfactor

   1    9.88817e+07                  0.00000e+00              -5.00000e-01
   2   -1.29783e+08                  0.00000e+00              5.00000e-01 

Constant factor =  4.76190e-04

DC gain =  6.89786e-05

......9......8......7......6......5......4......3......2......1......
227e-06      100.00% 
Convergence achieved in 2 iterations.
DC simulation time: CPU = 63 us, elapsed = 74.8634 us.
                      Poles (Hz)

           Real                       Imaginary                 Qfactor

   1   -1.40067e+08                  0.00000e+00              5.00000e-01 
   2   -6.41410e+08                  0.00000e+00              5.00000e-01 

                      Zeros (Hz)
                      at I(IPRB0:in)/V0

           Real                       Imaginary                 Qfactor

   1    9.98335e+07                  0.00000e+00              -5.00000e-01
   2   -1.31169e+08                  0.00000e+00              5.00000e-01 

Constant factor =  4.76190e-04

DC gain =  6.94092e-05

......9......8......7......6......5......4......3......2......1......0
Accumulated DC solution time =            20.5646 ms.
Intrinsic pz analysis time =              197.901 ms.
Total time required for pz analysis `pz': CPU = 59.47 ms, elapsed = 218.531 ms, util. = 27.2%.
Time accumulated: CPU = 408.534 ms, elapsed = 773.406 ms.
Peak resident memory used = 216 Mbytes.

modelParameter: writing model parameter values to rawfile.

Opening the PSF file ../psf/modelParameter.info ...
element: writing instance parameter values to rawfile.

Opening the PSF file ../psf/element.info ...
outputParameter: writing output parameter values to rawfile.

Opening the PSF file ../psf/outputParameter.info ...
designParamVals: writing netlist parameters to rawfile.

Opening the PSFASCII file ../psf/designParamVals.info ...
primitives: writing primitives to rawfile.

Opening the PSFASCII file ../psf/primitives.info.primitives ...
subckts: writing subcircuits to rawfile.

Opening the PSFASCII file ../psf/subckts.info.subckts ...
Licensing Information:
Lic Summary:
[15:18:50.211546] Cdslmd servers:3000@lic08.ug.kth.se
[15:18:50.211601] Feature usage summary:
[15:18:50.211602] Virtuoso_Multi_mode_Simulation


Aggregate audit (3:18:50 PM, Sun Nov 9, 2025):
Time used: CPU = 421 ms, elapsed = 826 ms, util. = 50.9%.
Time spent in licensing: elapsed = 84.7 ms, percentage of total = 10.3%.
Peak memory used = 221 Mbytes.
Simulation started at: 3:18:49 PM, Sun Nov 9, 2025, ended at: 3:18:50 PM, Sun Nov 9, 2025, with elapsed time (wall clock): 826 ms.
spectre completes with 0 errors, 0 warnings, and 4 notices.


********* LOG ENDS **************
**                             **
