
Spectre (R) Circuit Simulator
Version 24.1.0.288.isr5 64bit -- 3 Apr 2025
Copyright (C) 1989-2025 Cadence Design Systems, Inc. All rights reserved worldwide. Cadence and Spectre are registered trademarks of Cadence Design Systems, Inc. All others are the property of their respective holders.

Includes RSA BSAFE(R) Cryptographic or Security Protocol Software from RSA Security, Inc.

User: saul   Host: 680bb75d07d9   HostID: 11AC0200   PID: 54471
Memory  available: 23.4614 GB  physical: 27.3104 GB
Linux   : Rocky Linux release 8.10 (Green Obsidian)
CPU Type: 11th Gen Intel(R) Core(TM) i7-11700K @ 3.60GHz
All processors running at 3600.0 MHz
        Socket: Processors
        0:       0,  1,  2,  3,  4,  5,  6,  7,  8,  9
                10, 11, 12, 13, 14, 15
        
System load averages (1min, 5min, 15min) : 7.8 %, 3.4 %, 3.6 %
HPC is enabled


Simulating `input.scs' on 680bb75d07d9 at 4:11:45 PM, Sun Nov 9, 2025 (process id: 54471).
Current working directory: /home/saul/projects/FIL3601/Sim/LAB2/transconductance/adexl/results/data/Interactive.62/1/rootlocus/netlist
Command line:
    /opt/tools/cadence/installs/SPECTRE241/tools/bin/spectre -64  \
        input.scs +escchars +log ../psf/spectre.out -format psfxl -raw  \
        ../psf +aps +mt +lqtimeout 900 -maxw 5 -maxn 5 -env ade  \
        -ahdllibdir  \
        /home/saul/projects/FIL3601/Sim/LAB2/transconductance/adexl/results/data/Interactive.62/sharedData/Job3/ahdl/input.ahdlSimDB  \
        +logstatus  \
        +adespetkn=0001089D13A302B663E41FB550AF0DF415A679A322D5069144BF588C12F604E07EF416DC01A319B562BB63D379FB3FB245A3619325CE279066AF73C252F14F9278FB79D15D9175FF34980CBD6B9974D334982B841BA441B756AF27D91BF747EB0EA979D121F874D3349879D118F874D3349810C1A5C6C9ED5D8800003684

Simulation Id: KanuJuR7SCqHFpLc
Licensing Information:
[16:11:46.188825] Configured Lic search path (24.01-s002): 3000@lic08.ug.kth.se

Licensing Information:
[16:11:46.274385] Periodic Lic check successful

Loading /opt/tools/cadence/installs/SPECTRE241/tools.lnx86/cmi/lib/64bit/5.0/libinfineon_sh.so ...
Loading /opt/tools/cadence/installs/SPECTRE241/tools.lnx86/cmi/lib/64bit/5.0/libphilips_I_sh.so ...
Loading /opt/tools/cadence/installs/SPECTRE241/tools.lnx86/cmi/lib/64bit/5.0/libphilips_sh.so ...
Loading /opt/tools/cadence/installs/SPECTRE241/tools.lnx86/cmi/lib/64bit/5.0/libsparam_sh.so ...
Loading /opt/tools/cadence/installs/SPECTRE241/tools.lnx86/cmi/lib/64bit/5.0/libstmodels_sh.so ...
Reading file:  /home/saul/projects/FIL3601/Sim/LAB2/transconductance/adexl/results/data/Interactive.62/1/rootlocus/netlist/input.scs
Reading file:  /opt/tools/cadence/installs/SPECTRE241/tools.lnx86/spectre/etc/configs/spectre.cfg
Reading file:  /opt/pdk/xfab/XKIT/xh018/cadence/v10_0/spectre/v10_0_2/lpmos/config.scs
Reading file:  /opt/pdk/xfab/XKIT/xh018/cadence/v10_0/spectre/v10_0_2/lpmos/param.scs
Reading file:  /opt/pdk/xfab/XKIT/xh018/cadence/v10_0/spectre/v10_0_2/lpmos/bip.scs
Reading file:  /opt/pdk/xfab/XKIT/xh018/cadence/v10_0/spectre/v10_0_2/lpmos/models/bip/tm_bip.scs
Reading file:  /opt/pdk/xfab/XKIT/xh018/cadence/v10_0/spectre/v10_0_2/lpmos/models/bip/qpva.scs
Reading file:  /opt/pdk/xfab/XKIT/xh018/cadence/v10_0/spectre/v10_0_2/lpmos/models/bip/qpvb.scs
Reading file:  /opt/pdk/xfab/XKIT/xh018/cadence/v10_0/spectre/v10_0_2/lpmos/models/bip/qpvc.scs
Reading file:  /opt/pdk/xfab/XKIT/xh018/cadence/v10_0/spectre/v10_0_2/lpmos/models/bip/qpva3.scs
Reading file:  /opt/pdk/xfab/XKIT/xh018/cadence/v10_0/spectre/v10_0_2/lpmos/models/bip/qpvb3.scs
Reading file:  /opt/pdk/xfab/XKIT/xh018/cadence/v10_0/spectre/v10_0_2/lpmos/models/bip/qpvc3.scs
Reading file:  /opt/pdk/xfab/XKIT/xh018/cadence/v10_0/spectre/v10_0_2/lpmos/models/bip/qnva.scs
Reading file:  /opt/pdk/xfab/XKIT/xh018/cadence/v10_0/spectre/v10_0_2/lpmos/models/bip/qnvb.scs
Reading file:  /opt/pdk/xfab/XKIT/xh018/cadence/v10_0/spectre/v10_0_2/lpmos/models/bip/qnvba.scs
Reading file:  /opt/pdk/xfab/XKIT/xh018/cadence/v10_0/spectre/v10_0_2/lpmos/models/bip/qnvbb.scs
Reading file:  /opt/pdk/xfab/XKIT/xh018/cadence/v10_0/spectre/v10_0_2/lpmos/models/bip/qnvc.scs
Reading file:  /opt/pdk/xfab/XKIT/xh018/cadence/v10_0/spectre/v10_0_2/lpmos/models/bip/qnvca.scs
Reading file:  /opt/pdk/xfab/XKIT/xh018/cadence/v10_0/spectre/v10_0_2/lpmos/models/bip/qnvcb.scs
Reading file:  /opt/pdk/xfab/XKIT/xh018/cadence/v10_0/spectre/v10_0_2/lpmos/models/bip/qpvhscr.scs
Reading file:  /opt/pdk/xfab/XKIT/xh018/cadence/v10_0/spectre/v10_0_2/lpmos/models/bip/qpvascr.scs
Reading file:  /opt/pdk/xfab/XKIT/xh018/cadence/v10_0/spectre/v10_0_2/lpmos/models/bip/qpvhbscr.scs
Reading file:  /opt/pdk/xfab/XKIT/xh018/cadence/v10_0/spectre/v10_0_2/lpmos/models/bip/qpv_pa.scs
Reading file:  /opt/pdk/xfab/XKIT/xh018/cadence/v10_0/spectre/v10_0_2/lpmos/models/bip/qpv_pb.scs
Reading file:  /opt/pdk/xfab/XKIT/xh018/cadence/v10_0/spectre/v10_0_2/lpmos/models/bip/qpv_pc.scs
Reading file:  /opt/pdk/xfab/XKIT/xh018/cadence/v10_0/spectre/v10_0_2/lpmos/models/bip/qpv_pd.scs
Reading file:  /opt/pdk/xfab/XKIT/xh018/cadence/v10_0/spectre/v10_0_2/lpmos/models/bip/qpv_pe.scs
Reading file:  /opt/pdk/xfab/XKIT/xh018/cadence/v10_0/spectre/v10_0_2/lpmos/models/bip/qpv_pf.scs
Reading file:  /opt/pdk/xfab/XKIT/xh018/cadence/v10_0/spectre/v10_0_2/lpmos/models/bip/qpl_pa.scs
Reading file:  /opt/pdk/xfab/XKIT/xh018/cadence/v10_0/spectre/v10_0_2/lpmos/models/bip/qpl_pb.scs
Reading file:  /opt/pdk/xfab/XKIT/xh018/cadence/v10_0/spectre/v10_0_2/lpmos/models/bip/qpl_pc.scs
Reading file:  /opt/pdk/xfab/XKIT/xh018/cadence/v10_0/spectre/v10_0_2/lpmos/models/bip/qpl_pd.scs
Reading file:  /opt/pdk/xfab/XKIT/xh018/cadence/v10_0/spectre/v10_0_2/lpmos/models/bip/qpl_pe.scs
Reading file:  /opt/pdk/xfab/XKIT/xh018/cadence/v10_0/spectre/v10_0_2/lpmos/models/bip/qpl_pf.scs
Reading file:  /opt/pdk/xfab/XKIT/xh018/cadence/v10_0/spectre/v10_0_2/lpmos/models/bip/qnl_pa.scs
Reading file:  /opt/pdk/xfab/XKIT/xh018/cadence/v10_0/spectre/v10_0_2/lpmos/models/bip/qnl_pb.scs
Reading file:  /opt/pdk/xfab/XKIT/xh018/cadence/v10_0/spectre/v10_0_2/lpmos/models/bip/qnl_pc.scs
Reading file:  /opt/pdk/xfab/XKIT/xh018/cadence/v10_0/spectre/v10_0_2/lpmos/models/bip/qnl_pd.scs
Reading file:  /opt/pdk/xfab/XKIT/xh018/cadence/v10_0/spectre/v10_0_2/lpmos/models/bip/qnl_pe.scs
Reading file:  /opt/pdk/xfab/XKIT/xh018/cadence/v10_0/spectre/v10_0_2/lpmos/models/bip/qnl_pf.scs
Reading file:  /opt/pdk/xfab/XKIT/xh018/cadence/v10_0/spectre/v10_0_2/lpmos/cap.scs
Reading file:  /opt/pdk/xfab/XKIT/xh018/cadence/v10_0/spectre/v10_0_2/lpmos/models/cap/tm_cap.scs
Reading file:  /opt/pdk/xfab/XKIT/xh018/cadence/v10_0/spectre/v10_0_2/lpmos/models/cap/csandwt3.scs
Reading file:  /opt/pdk/xfab/XKIT/xh018/cadence/v10_0/spectre/v10_0_2/lpmos/models/cap/csandwt4.scs
Reading file:  /opt/pdk/xfab/XKIT/xh018/cadence/v10_0/spectre/v10_0_2/lpmos/models/cap/csandwt5.scs
Reading file:  /opt/pdk/xfab/XKIT/xh018/cadence/v10_0/spectre/v10_0_2/lpmos/models/cap/csf2p.scs
Reading file:  /opt/pdk/xfab/XKIT/xh018/cadence/v10_0/spectre/v10_0_2/lpmos/models/cap/csf3p.scs
Reading file:  /opt/pdk/xfab/XKIT/xh018/cadence/v10_0/spectre/v10_0_2/lpmos/models/cap/csf3.scs
Reading file:  /opt/pdk/xfab/XKIT/xh018/cadence/v10_0/spectre/v10_0_2/lpmos/models/cap/csf4.scs
Reading file:  /opt/pdk/xfab/XKIT/xh018/cadence/v10_0/spectre/v10_0_2/lpmos/models/cap/csf5.scs
Reading file:  /opt/pdk/xfab/XKIT/xh018/cadence/v10_0/spectre/v10_0_2/lpmos/models/cap/csft4.scs
Reading file:  /opt/pdk/xfab/XKIT/xh018/cadence/v10_0/spectre/v10_0_2/lpmos/models/cap/csft5.scs
Reading file:  /opt/pdk/xfab/XKIT/xh018/cadence/v10_0/spectre/v10_0_2/lpmos/models/cap/csft6.scs
Reading file:  /opt/pdk/xfab/XKIT/xh018/cadence/v10_0/spectre/v10_0_2/lpmos/models/cap/csf3a.scs
Reading file:  /opt/pdk/xfab/XKIT/xh018/cadence/v10_0/spectre/v10_0_2/lpmos/models/cap/csf4a.scs
Reading file:  /opt/pdk/xfab/XKIT/xh018/cadence/v10_0/spectre/v10_0_2/lpmos/models/cap/csf5a.scs
Reading file:  /opt/pdk/xfab/XKIT/xh018/cadence/v10_0/spectre/v10_0_2/lpmos/models/cap/csft4a.scs
Reading file:  /opt/pdk/xfab/XKIT/xh018/cadence/v10_0/spectre/v10_0_2/lpmos/models/cap/csft5a.scs
Reading file:  /opt/pdk/xfab/XKIT/xh018/cadence/v10_0/spectre/v10_0_2/lpmos/models/cap/csft6a.scs
Reading file:  /opt/pdk/xfab/XKIT/xh018/cadence/v10_0/spectre/v10_0_2/lpmos/models/cap/cif3a.scs
Reading file:  /opt/pdk/xfab/XKIT/xh018/cadence/v10_0/spectre/v10_0_2/lpmos/models/cap/cif4a.scs
Reading file:  /opt/pdk/xfab/XKIT/xh018/cadence/v10_0/spectre/v10_0_2/lpmos/models/cap/cif5a.scs
Reading file:  /opt/pdk/xfab/XKIT/xh018/cadence/v10_0/spectre/v10_0_2/lpmos/models/cap/cift4a.scs
Reading file:  /opt/pdk/xfab/XKIT/xh018/cadence/v10_0/spectre/v10_0_2/lpmos/models/cap/cift5a.scs
Reading file:  /opt/pdk/xfab/XKIT/xh018/cadence/v10_0/spectre/v10_0_2/lpmos/models/cap/cift6a.scs
Reading file:  /opt/pdk/xfab/XKIT/xh018/cadence/v10_0/spectre/v10_0_2/lpmos/models/cap/cmm3.scs
Reading file:  /opt/pdk/xfab/XKIT/xh018/cadence/v10_0/spectre/v10_0_2/lpmos/models/cap/cmm4t.scs
Reading file:  /opt/pdk/xfab/XKIT/xh018/cadence/v10_0/spectre/v10_0_2/lpmos/models/cap/cmm4.scs
Reading file:  /opt/pdk/xfab/XKIT/xh018/cadence/v10_0/spectre/v10_0_2/lpmos/models/cap/cmm5t.scs
Reading file:  /opt/pdk/xfab/XKIT/xh018/cadence/v10_0/spectre/v10_0_2/lpmos/models/cap/cmm6t.scs
Reading file:  /opt/pdk/xfab/XKIT/xh018/cadence/v10_0/spectre/v10_0_2/lpmos/models/cap/cdmm4.scs
Reading file:  /opt/pdk/xfab/XKIT/xh018/cadence/v10_0/spectre/v10_0_2/lpmos/models/cap/cdmm4t.scs
Reading file:  /opt/pdk/xfab/XKIT/xh018/cadence/v10_0/spectre/v10_0_2/lpmos/models/cap/ctmm5.scs
Reading file:  /opt/pdk/xfab/XKIT/xh018/cadence/v10_0/spectre/v10_0_2/lpmos/models/cap/ctmm5t.scs
Reading file:  /opt/pdk/xfab/XKIT/xh018/cadence/v10_0/spectre/v10_0_2/lpmos/models/cap/cmmh3.scs
Reading file:  /opt/pdk/xfab/XKIT/xh018/cadence/v10_0/spectre/v10_0_2/lpmos/models/cap/cmmh4t.scs
Reading file:  /opt/pdk/xfab/XKIT/xh018/cadence/v10_0/spectre/v10_0_2/lpmos/models/cap/cmmh4.scs
Reading file:  /opt/pdk/xfab/XKIT/xh018/cadence/v10_0/spectre/v10_0_2/lpmos/models/cap/cmmh5t.scs
Reading file:  /opt/pdk/xfab/XKIT/xh018/cadence/v10_0/spectre/v10_0_2/lpmos/models/cap/cmmh6t.scs
Reading file:  /opt/pdk/xfab/XKIT/xh018/cadence/v10_0/spectre/v10_0_2/lpmos/models/cap/cdmmh4.scs
Reading file:  /opt/pdk/xfab/XKIT/xh018/cadence/v10_0/spectre/v10_0_2/lpmos/models/cap/cdmmh4t.scs
Reading file:  /opt/pdk/xfab/XKIT/xh018/cadence/v10_0/spectre/v10_0_2/lpmos/models/cap/ctmmh5.scs
Reading file:  /opt/pdk/xfab/XKIT/xh018/cadence/v10_0/spectre/v10_0_2/lpmos/models/cap/ctmmh5t.scs
Reading file:  /opt/pdk/xfab/XKIT/xh018/cadence/v10_0/spectre/v10_0_2/lpmos/models/cap/mosvc.scs
Reading file:  /opt/pdk/xfab/XKIT/xh018/cadence/v10_0/spectre/v10_0_2/lpmos/models/cap/mosvc_pmos.scs
Reading file:  /opt/pdk/xfab/XKIT/xh018/cadence/v10_0/spectre/v10_0_2/lpmos/models/cap/mosvci.scs
Reading file:  /opt/pdk/xfab/XKIT/xh018/cadence/v10_0/spectre/v10_0_2/lpmos/models/cap/mosvci_nmos.scs
Reading file:  /opt/pdk/xfab/XKIT/xh018/cadence/v10_0/spectre/v10_0_2/lpmos/models/cap/mosvci_m.scs
Reading file:  /opt/pdk/xfab/XKIT/xh018/cadence/v10_0/spectre/v10_0_2/lpmos/models/cap/mosvc3.scs
Reading file:  /opt/pdk/xfab/XKIT/xh018/cadence/v10_0/spectre/v10_0_2/lpmos/models/cap/mosvc3_pmos.scs
Reading file:  /opt/pdk/xfab/XKIT/xh018/cadence/v10_0/spectre/v10_0_2/lpmos/models/cap/mosvc3i.scs
Reading file:  /opt/pdk/xfab/XKIT/xh018/cadence/v10_0/spectre/v10_0_2/lpmos/models/cap/mosvc3i_nmos.scs
Reading file:  /opt/pdk/xfab/XKIT/xh018/cadence/v10_0/spectre/v10_0_2/lpmos/models/cap/mosvc3i_m.scs
Reading file:  /opt/pdk/xfab/XKIT/xh018/cadence/v10_0/spectre/v10_0_2/lpmos/models/cap/cpod.scs
Reading file:  /opt/pdk/xfab/XKIT/xh018/cadence/v10_0/spectre/v10_0_2/lpmos/models/cap/cpod_i.scs
Reading file:  /opt/pdk/xfab/XKIT/xh018/cadence/v10_0/spectre/v10_0_2/lpmos/models/cap/cpodhv.scs
Reading file:  /opt/pdk/xfab/XKIT/xh018/cadence/v10_0/spectre/v10_0_2/lpmos/models/cap/cpodhv_i.scs
Reading file:  /opt/pdk/xfab/XKIT/xh018/cadence/v10_0/spectre/v10_0_2/lpmos/models/cap/cp1sub.scs
Reading file:  /opt/pdk/xfab/XKIT/xh018/cadence/v10_0/spectre/v10_0_2/lpmos/models/cap/cp1suba.scs
Reading file:  /opt/pdk/xfab/XKIT/xh018/cadence/v10_0/spectre/v10_0_2/lpmos/models/cap/cp1subp.scs
Reading file:  /opt/pdk/xfab/XKIT/xh018/cadence/v10_0/spectre/v10_0_2/lpmos/models/cap/tag_25v.scs
Reading file:  /opt/pdk/xfab/XKIT/xh018/cadence/v10_0/spectre/v10_0_2/lpmos/models/cap/tag_60v.scs
Reading file:  /opt/pdk/xfab/XKIT/xh018/cadence/v10_0/spectre/v10_0_2/lpmos/dio.scs
Reading file:  /opt/pdk/xfab/XKIT/xh018/cadence/v10_0/spectre/v10_0_2/lpmos/models/dio/tm_dio.scs
Reading file:  /opt/pdk/xfab/XKIT/xh018/cadence/v10_0/spectre/v10_0_2/lpmos/models/dio/dn.scs
Reading file:  /opt/pdk/xfab/XKIT/xh018/cadence/v10_0/spectre/v10_0_2/lpmos/models/dio/dp.scs
Reading file:  /opt/pdk/xfab/XKIT/xh018/cadence/v10_0/spectre/v10_0_2/lpmos/models/dio/dnw.scs
Reading file:  /opt/pdk/xfab/XKIT/xh018/cadence/v10_0/spectre/v10_0_2/lpmos/models/dio/dn3.scs
Reading file:  /opt/pdk/xfab/XKIT/xh018/cadence/v10_0/spectre/v10_0_2/lpmos/models/dio/dnn3.scs
Reading file:  /opt/pdk/xfab/XKIT/xh018/cadence/v10_0/spectre/v10_0_2/lpmos/models/dio/dp3.scs
Reading file:  /opt/pdk/xfab/XKIT/xh018/cadence/v10_0/spectre/v10_0_2/lpmos/models/dio/dnw3.scs
Reading file:  /opt/pdk/xfab/XKIT/xh018/cadence/v10_0/spectre/v10_0_2/lpmos/models/dio/ddnwmv.scs
Reading file:  /opt/pdk/xfab/XKIT/xh018/cadence/v10_0/spectre/v10_0_2/lpmos/models/dio/dpdnwmv.scs
Reading file:  /opt/pdk/xfab/XKIT/xh018/cadence/v10_0/spectre/v10_0_2/lpmos/models/dio/dipdnwmv.scs
Reading file:  /opt/pdk/xfab/XKIT/xh018/cadence/v10_0/spectre/v10_0_2/lpmos/models/dio/ddnw.scs
Reading file:  /opt/pdk/xfab/XKIT/xh018/cadence/v10_0/spectre/v10_0_2/lpmos/models/dio/ddnwa.scs
Reading file:  /opt/pdk/xfab/XKIT/xh018/cadence/v10_0/spectre/v10_0_2/lpmos/models/dio/dpdnw.scs
Reading file:  /opt/pdk/xfab/XKIT/xh018/cadence/v10_0/spectre/v10_0_2/lpmos/models/dio/dipdnw.scs
Reading file:  /opt/pdk/xfab/XKIT/xh018/cadence/v10_0/spectre/v10_0_2/lpmos/models/dio/dnhpw.scs
Reading file:  /opt/pdk/xfab/XKIT/xh018/cadence/v10_0/spectre/v10_0_2/lpmos/models/dio/dnhpwa.scs
Reading file:  /opt/pdk/xfab/XKIT/xh018/cadence/v10_0/spectre/v10_0_2/lpmos/models/dio/dphnw.scs
Reading file:  /opt/pdk/xfab/XKIT/xh018/cadence/v10_0/spectre/v10_0_2/lpmos/models/dio/dphnwa.scs
Reading file:  /opt/pdk/xfab/XKIT/xh018/cadence/v10_0/spectre/v10_0_2/lpmos/models/dio/dhpw.scs
Reading file:  /opt/pdk/xfab/XKIT/xh018/cadence/v10_0/spectre/v10_0_2/lpmos/models/dio/dhnw.scs
Reading file:  /opt/pdk/xfab/XKIT/xh018/cadence/v10_0/spectre/v10_0_2/lpmos/models/dio/dndf.scs
Reading file:  /opt/pdk/xfab/XKIT/xh018/cadence/v10_0/spectre/v10_0_2/lpmos/models/dio/dpdwhn.scs
Reading file:  /opt/pdk/xfab/XKIT/xh018/cadence/v10_0/spectre/v10_0_2/lpmos/models/dio/dwhn.scs
Reading file:  /opt/pdk/xfab/XKIT/xh018/cadence/v10_0/spectre/v10_0_2/lpmos/models/dio/dpwhn.scs
Reading file:  /opt/pdk/xfab/XKIT/xh018/cadence/v10_0/spectre/v10_0_2/lpmos/models/dio/dpndf.scs
Reading file:  /opt/pdk/xfab/XKIT/xh018/cadence/v10_0/spectre/v10_0_2/lpmos/models/dio/dpdddnw.scs
Reading file:  /opt/pdk/xfab/XKIT/xh018/cadence/v10_0/spectre/v10_0_2/lpmos/models/dio/ddpldnw.scs
Reading file:  /opt/pdk/xfab/XKIT/xh018/cadence/v10_0/spectre/v10_0_2/lpmos/models/dio/dn3dpl.scs
Reading file:  /opt/pdk/xfab/XKIT/xh018/cadence/v10_0/spectre/v10_0_2/lpmos/models/dio/dbn.scs
Reading file:  /opt/pdk/xfab/XKIT/xh018/cadence/v10_0/spectre/v10_0_2/lpmos/models/dio/dpol.scs
Reading file:  /opt/pdk/xfab/XKIT/xh018/cadence/v10_0/spectre/v10_0_2/lpmos/models/dio/dnpdd_scr.scs
Reading file:  /opt/pdk/xfab/XKIT/xh018/cadence/v10_0/spectre/v10_0_2/lpmos/models/dio/dpdd_scr.scs
Reading file:  /opt/pdk/xfab/XKIT/xh018/cadence/v10_0/spectre/v10_0_2/lpmos/models/dio/dsb.scs
Reading file:  /opt/pdk/xfab/XKIT/xh018/cadence/v10_0/spectre/v10_0_2/lpmos/models/dio/dsba.scs
Reading file:  /opt/pdk/xfab/XKIT/xh018/cadence/v10_0/spectre/v10_0_2/lpmos/models/dio/dsba_qp1.scs
Reading file:  /opt/pdk/xfab/XKIT/xh018/cadence/v10_0/spectre/v10_0_2/lpmos/models/dio/dnp20.scs
Reading file:  /opt/pdk/xfab/XKIT/xh018/cadence/v10_0/spectre/v10_0_2/lpmos/models/dio/dpp20.scs
Reading file:  /opt/pdk/xfab/XKIT/xh018/cadence/v10_0/spectre/v10_0_2/lpmos/models/dio/dn3sci.scs
Reading file:  /opt/pdk/xfab/XKIT/xh018/cadence/v10_0/spectre/v10_0_2/lpmos/models/dio/dscidnwmv.scs
Reading file:  /opt/pdk/xfab/XKIT/xh018/cadence/v10_0/spectre/v10_0_2/lpmos/mos.scs
Reading file:  /opt/pdk/xfab/XKIT/xh018/cadence/v10_0/spectre/v10_0_2/lpmos/models/mos/tm_mos.scs
Reading file:  /opt/pdk/xfab/XKIT/xh018/cadence/v10_0/spectre/v10_0_2/lpmos/models/mos/ne.scs
Reading file:  /opt/pdk/xfab/XKIT/xh018/cadence/v10_0/spectre/v10_0_2/lpmos/models/mos/nei.scs
Reading file:  /opt/pdk/xfab/XKIT/xh018/cadence/v10_0/spectre/v10_0_2/lpmos/models/mos/nei_6.scs
Reading file:  /opt/pdk/xfab/XKIT/xh018/cadence/v10_0/spectre/v10_0_2/lpmos/models/mos/nei_m_6.scs
Reading file:  /opt/pdk/xfab/XKIT/xh018/cadence/v10_0/spectre/v10_0_2/lpmos/models/mos/nei_a_6.scs
Reading file:  /opt/pdk/xfab/XKIT/xh018/cadence/v10_0/spectre/v10_0_2/lpmos/models/mos/pe.scs
Reading file:  /opt/pdk/xfab/XKIT/xh018/cadence/v10_0/spectre/v10_0_2/lpmos/models/mos/pe_5.scs
Reading file:  /opt/pdk/xfab/XKIT/xh018/cadence/v10_0/spectre/v10_0_2/lpmos/models/mos/pei.scs
Reading file:  /opt/pdk/xfab/XKIT/xh018/cadence/v10_0/spectre/v10_0_2/lpmos/models/mos/pei_5.scs
Reading file:  /opt/pdk/xfab/XKIT/xh018/cadence/v10_0/spectre/v10_0_2/lpmos/models/mos/pei_m_5.scs
Reading file:  /opt/pdk/xfab/XKIT/xh018/cadence/v10_0/spectre/v10_0_2/lpmos/models/mos/pei_a_5.scs
Reading file:  /opt/pdk/xfab/XKIT/xh018/cadence/v10_0/spectre/v10_0_2/lpmos/models/mos/nel.scs
Reading file:  /opt/pdk/xfab/XKIT/xh018/cadence/v10_0/spectre/v10_0_2/lpmos/models/mos/neli.scs
Reading file:  /opt/pdk/xfab/XKIT/xh018/cadence/v10_0/spectre/v10_0_2/lpmos/models/mos/neli_6.scs
Reading file:  /opt/pdk/xfab/XKIT/xh018/cadence/v10_0/spectre/v10_0_2/lpmos/models/mos/neli_m_6.scs
Reading file:  /opt/pdk/xfab/XKIT/xh018/cadence/v10_0/spectre/v10_0_2/lpmos/models/mos/pel.scs
Reading file:  /opt/pdk/xfab/XKIT/xh018/cadence/v10_0/spectre/v10_0_2/lpmos/models/mos/pel_5.scs
Reading file:  /opt/pdk/xfab/XKIT/xh018/cadence/v10_0/spectre/v10_0_2/lpmos/models/mos/peli.scs
Reading file:  /opt/pdk/xfab/XKIT/xh018/cadence/v10_0/spectre/v10_0_2/lpmos/models/mos/peli_5.scs
Reading file:  /opt/pdk/xfab/XKIT/xh018/cadence/v10_0/spectre/v10_0_2/lpmos/models/mos/peli_m_5.scs
Reading file:  /opt/pdk/xfab/XKIT/xh018/cadence/v10_0/spectre/v10_0_2/lpmos/models/mos/nn3.scs
Reading file:  /opt/pdk/xfab/XKIT/xh018/cadence/v10_0/spectre/v10_0_2/lpmos/models/mos/ne3.scs
Reading file:  /opt/pdk/xfab/XKIT/xh018/cadence/v10_0/spectre/v10_0_2/lpmos/models/mos/ne3i.scs
Reading file:  /opt/pdk/xfab/XKIT/xh018/cadence/v10_0/spectre/v10_0_2/lpmos/models/mos/ne3i_6.scs
Reading file:  /opt/pdk/xfab/XKIT/xh018/cadence/v10_0/spectre/v10_0_2/lpmos/models/mos/ne3i_m_6.scs
Reading file:  /opt/pdk/xfab/XKIT/xh018/cadence/v10_0/spectre/v10_0_2/lpmos/models/mos/ne3i_a_6.scs
Reading file:  /opt/pdk/xfab/XKIT/xh018/cadence/v10_0/spectre/v10_0_2/lpmos/models/mos/pe3.scs
Reading file:  /opt/pdk/xfab/XKIT/xh018/cadence/v10_0/spectre/v10_0_2/lpmos/models/mos/pe3_5.scs
Reading file:  /opt/pdk/xfab/XKIT/xh018/cadence/v10_0/spectre/v10_0_2/lpmos/models/mos/pe3i.scs
Reading file:  /opt/pdk/xfab/XKIT/xh018/cadence/v10_0/spectre/v10_0_2/lpmos/models/mos/pe3i_5.scs
Reading file:  /opt/pdk/xfab/XKIT/xh018/cadence/v10_0/spectre/v10_0_2/lpmos/models/mos/pe3i_m_5.scs
Reading file:  /opt/pdk/xfab/XKIT/xh018/cadence/v10_0/spectre/v10_0_2/lpmos/models/mos/pe3i_a_5.scs
Reading file:  /opt/pdk/xfab/XKIT/xh018/cadence/v10_0/spectre/v10_0_2/lpmos/models/mos/pe3ln.scs
Reading file:  /opt/pdk/xfab/XKIT/xh018/cadence/v10_0/spectre/v10_0_2/lpmos/models/mos/pe3ln_5.scs
Reading file:  /opt/pdk/xfab/XKIT/xh018/cadence/v10_0/spectre/v10_0_2/lpmos/models/mos/pe3lni.scs
Reading file:  /opt/pdk/xfab/XKIT/xh018/cadence/v10_0/spectre/v10_0_2/lpmos/models/mos/pe3lni_5.scs
Reading file:  /opt/pdk/xfab/XKIT/xh018/cadence/v10_0/spectre/v10_0_2/lpmos/models/mos/pe3lni_m_5.scs
Reading file:  /opt/pdk/xfab/XKIT/xh018/cadence/v10_0/spectre/v10_0_2/lpmos/models/mos/nd3.scs
Reading file:  /opt/pdk/xfab/XKIT/xh018/cadence/v10_0/spectre/v10_0_2/lpmos/models/mos/nd3_mos1.scs
Reading file:  /opt/pdk/xfab/XKIT/xh018/cadence/v10_0/spectre/v10_0_2/lpmos/models/mos/nd3_mos2.scs
Reading file:  /opt/pdk/xfab/XKIT/xh018/cadence/v10_0/spectre/v10_0_2/lpmos/models/mos/nd3i.scs
Reading file:  /opt/pdk/xfab/XKIT/xh018/cadence/v10_0/spectre/v10_0_2/lpmos/models/mos/nd3i_mos1.scs
Reading file:  /opt/pdk/xfab/XKIT/xh018/cadence/v10_0/spectre/v10_0_2/lpmos/models/mos/nd3i_mos2.scs
Reading file:  /opt/pdk/xfab/XKIT/xh018/cadence/v10_0/spectre/v10_0_2/lpmos/models/mos/nd3i_6.scs
Reading file:  /opt/pdk/xfab/XKIT/xh018/cadence/v10_0/spectre/v10_0_2/lpmos/models/mos/nd3i_m_6.scs
Reading file:  /opt/pdk/xfab/XKIT/xh018/cadence/v10_0/spectre/v10_0_2/lpmos/models/mos/nelna.scs
Reading file:  /opt/pdk/xfab/XKIT/xh018/cadence/v10_0/spectre/v10_0_2/lpmos/models/mos/nelnai.scs
Reading file:  /opt/pdk/xfab/XKIT/xh018/cadence/v10_0/spectre/v10_0_2/lpmos/models/mos/nelnai_6.scs
Reading file:  /opt/pdk/xfab/XKIT/xh018/cadence/v10_0/spectre/v10_0_2/lpmos/models/mos/nelnai_m_6.scs
Reading file:  /opt/pdk/xfab/XKIT/xh018/cadence/v10_0/spectre/v10_0_2/lpmos/models/mos/ne3lna.scs
Reading file:  /opt/pdk/xfab/XKIT/xh018/cadence/v10_0/spectre/v10_0_2/lpmos/models/mos/ne3lnai.scs
Reading file:  /opt/pdk/xfab/XKIT/xh018/cadence/v10_0/spectre/v10_0_2/lpmos/models/mos/ne3lnai_6.scs
Reading file:  /opt/pdk/xfab/XKIT/xh018/cadence/v10_0/spectre/v10_0_2/lpmos/models/mos/ne3lnai_m_6.scs
Reading file:  /opt/pdk/xfab/XKIT/xh018/cadence/v10_0/spectre/v10_0_2/lpmos/models/mos/pe3lna.scs
Reading file:  /opt/pdk/xfab/XKIT/xh018/cadence/v10_0/spectre/v10_0_2/lpmos/models/mos/pe3lna_5.scs
Reading file:  /opt/pdk/xfab/XKIT/xh018/cadence/v10_0/spectre/v10_0_2/lpmos/models/mos/pe3lnai.scs
Reading file:  /opt/pdk/xfab/XKIT/xh018/cadence/v10_0/spectre/v10_0_2/lpmos/models/mos/pe3lnai_5.scs
Reading file:  /opt/pdk/xfab/XKIT/xh018/cadence/v10_0/spectre/v10_0_2/lpmos/models/mos/pe3lnai_m_5.scs
Reading file:  /opt/pdk/xfab/XKIT/xh018/cadence/v10_0/spectre/v10_0_2/lpmos/models/mos/nmma.scs
Reading file:  /opt/pdk/xfab/XKIT/xh018/cadence/v10_0/spectre/v10_0_2/lpmos/models/mos/jf_nmma.scs
Reading file:  /opt/pdk/xfab/XKIT/xh018/cadence/v10_0/spectre/v10_0_2/lpmos/models/mos/nmma_bjt.scs
Reading file:  /opt/pdk/xfab/XKIT/xh018/cadence/v10_0/spectre/v10_0_2/lpmos/models/mos/pmma.scs
Reading file:  /opt/pdk/xfab/XKIT/xh018/cadence/v10_0/spectre/v10_0_2/lpmos/models/mos/jf_pmma.scs
Reading file:  /opt/pdk/xfab/XKIT/xh018/cadence/v10_0/spectre/v10_0_2/lpmos/models/mos/pmma_bjt.scs
Reading file:  /opt/pdk/xfab/XKIT/xh018/cadence/v10_0/spectre/v10_0_2/lpmos/models/mos/nedi.scs
Reading file:  /opt/pdk/xfab/XKIT/xh018/cadence/v10_0/spectre/v10_0_2/lpmos/models/mos/nedi_bjt.scs
Reading file:  /opt/pdk/xfab/XKIT/xh018/cadence/v10_0/spectre/v10_0_2/lpmos/models/mos/nedia.scs
Reading file:  /opt/pdk/xfab/XKIT/xh018/cadence/v10_0/spectre/v10_0_2/lpmos/models/mos/nedia_bjt.scs
Reading file:  /opt/pdk/xfab/XKIT/xh018/cadence/v10_0/spectre/v10_0_2/lpmos/models/mos/ped2.scs
Reading file:  /opt/pdk/xfab/XKIT/xh018/cadence/v10_0/spectre/v10_0_2/lpmos/models/mos/ped2_bjt.scs
Reading file:  /opt/pdk/xfab/XKIT/xh018/cadence/v10_0/spectre/v10_0_2/lpmos/models/mos/ped.scs
Reading file:  /opt/pdk/xfab/XKIT/xh018/cadence/v10_0/spectre/v10_0_2/lpmos/models/mos/ped_bjt.scs
Reading file:  /opt/pdk/xfab/XKIT/xh018/cadence/v10_0/spectre/v10_0_2/lpmos/models/mos/nhv.scs
Reading file:  /opt/pdk/xfab/XKIT/xh018/cadence/v10_0/spectre/v10_0_2/lpmos/models/mos/nhv_mos2.scs
Reading file:  /opt/pdk/xfab/XKIT/xh018/cadence/v10_0/spectre/v10_0_2/lpmos/models/mos/nhv_bjt.scs
Reading file:  /opt/pdk/xfab/XKIT/xh018/cadence/v10_0/spectre/v10_0_2/lpmos/models/mos/nhhv.scs
Reading file:  /opt/pdk/xfab/XKIT/xh018/cadence/v10_0/spectre/v10_0_2/lpmos/models/mos/nhhv_mos2.scs
Reading file:  /opt/pdk/xfab/XKIT/xh018/cadence/v10_0/spectre/v10_0_2/lpmos/models/mos/nhhv_bjt.scs
Reading file:  /opt/pdk/xfab/XKIT/xh018/cadence/v10_0/spectre/v10_0_2/lpmos/models/mos/nmmc.scs
Reading file:  /opt/pdk/xfab/XKIT/xh018/cadence/v10_0/spectre/v10_0_2/lpmos/models/mos/nmmc_mos2.scs
Reading file:  /opt/pdk/xfab/XKIT/xh018/cadence/v10_0/spectre/v10_0_2/lpmos/models/mos/nmmc_bjt.scs
Reading file:  /opt/pdk/xfab/XKIT/xh018/cadence/v10_0/spectre/v10_0_2/lpmos/models/mos/nmmd.scs
Reading file:  /opt/pdk/xfab/XKIT/xh018/cadence/v10_0/spectre/v10_0_2/lpmos/models/mos/nmmd_mos2.scs
Reading file:  /opt/pdk/xfab/XKIT/xh018/cadence/v10_0/spectre/v10_0_2/lpmos/models/mos/nmmd_bjt.scs
Reading file:  /opt/pdk/xfab/XKIT/xh018/cadence/v10_0/spectre/v10_0_2/lpmos/models/mos/nmc.scs
Reading file:  /opt/pdk/xfab/XKIT/xh018/cadence/v10_0/spectre/v10_0_2/lpmos/models/mos/nmc_mos2.scs
Reading file:  /opt/pdk/xfab/XKIT/xh018/cadence/v10_0/spectre/v10_0_2/lpmos/models/mos/nmc_bjt.scs
Reading file:  /opt/pdk/xfab/XKIT/xh018/cadence/v10_0/spectre/v10_0_2/lpmos/models/mos/nma.scs
Reading file:  /opt/pdk/xfab/XKIT/xh018/cadence/v10_0/spectre/v10_0_2/lpmos/models/mos/nma_bjt.scs
Reading file:  /opt/pdk/xfab/XKIT/xh018/cadence/v10_0/spectre/v10_0_2/lpmos/models/mos/phv.scs
Reading file:  /opt/pdk/xfab/XKIT/xh018/cadence/v10_0/spectre/v10_0_2/lpmos/models/mos/phv_mos2.scs
Reading file:  /opt/pdk/xfab/XKIT/xh018/cadence/v10_0/spectre/v10_0_2/lpmos/models/mos/phv_bjt.scs
Reading file:  /opt/pdk/xfab/XKIT/xh018/cadence/v10_0/spectre/v10_0_2/lpmos/models/mos/phhv.scs
Reading file:  /opt/pdk/xfab/XKIT/xh018/cadence/v10_0/spectre/v10_0_2/lpmos/models/mos/phhv_mos2.scs
Reading file:  /opt/pdk/xfab/XKIT/xh018/cadence/v10_0/spectre/v10_0_2/lpmos/models/mos/phhv_bjt.scs
Reading file:  /opt/pdk/xfab/XKIT/xh018/cadence/v10_0/spectre/v10_0_2/lpmos/models/mos/pmc.scs
Reading file:  /opt/pdk/xfab/XKIT/xh018/cadence/v10_0/spectre/v10_0_2/lpmos/models/mos/pmc_mos2.scs
Reading file:  /opt/pdk/xfab/XKIT/xh018/cadence/v10_0/spectre/v10_0_2/lpmos/models/mos/pmc_bjt.scs
Reading file:  /opt/pdk/xfab/XKIT/xh018/cadence/v10_0/spectre/v10_0_2/lpmos/models/mos/pmmc.scs
Reading file:  /opt/pdk/xfab/XKIT/xh018/cadence/v10_0/spectre/v10_0_2/lpmos/models/mos/pmmc_mos2.scs
Reading file:  /opt/pdk/xfab/XKIT/xh018/cadence/v10_0/spectre/v10_0_2/lpmos/models/mos/pmmc_bjt.scs
Reading file:  /opt/pdk/xfab/XKIT/xh018/cadence/v10_0/spectre/v10_0_2/lpmos/models/mos/pma.scs
Reading file:  /opt/pdk/xfab/XKIT/xh018/cadence/v10_0/spectre/v10_0_2/lpmos/models/mos/pma_bjt.scs
Reading file:  /opt/pdk/xfab/XKIT/xh018/cadence/v10_0/spectre/v10_0_2/lpmos/models/mos/pmb.scs
Reading file:  /opt/pdk/xfab/XKIT/xh018/cadence/v10_0/spectre/v10_0_2/lpmos/models/mos/nesvt.scs
Reading file:  /opt/pdk/xfab/XKIT/xh018/cadence/v10_0/spectre/v10_0_2/lpmos/models/mos/nesvti.scs
Reading file:  /opt/pdk/xfab/XKIT/xh018/cadence/v10_0/spectre/v10_0_2/lpmos/models/mos/nesvti_6.scs
Reading file:  /opt/pdk/xfab/XKIT/xh018/cadence/v10_0/spectre/v10_0_2/lpmos/models/mos/nesvti_m_6.scs
Reading file:  /opt/pdk/xfab/XKIT/xh018/cadence/v10_0/spectre/v10_0_2/lpmos/models/mos/pesvt.scs
Reading file:  /opt/pdk/xfab/XKIT/xh018/cadence/v10_0/spectre/v10_0_2/lpmos/models/mos/pesvt_5.scs
Reading file:  /opt/pdk/xfab/XKIT/xh018/cadence/v10_0/spectre/v10_0_2/lpmos/models/mos/pesvti.scs
Reading file:  /opt/pdk/xfab/XKIT/xh018/cadence/v10_0/spectre/v10_0_2/lpmos/models/mos/pesvti_5.scs
Reading file:  /opt/pdk/xfab/XKIT/xh018/cadence/v10_0/spectre/v10_0_2/lpmos/models/mos/pesvti_m_5.scs
Reading file:  /opt/pdk/xfab/XKIT/xh018/cadence/v10_0/spectre/v10_0_2/lpmos/models/mos/nhvd.scs
Reading file:  /opt/pdk/xfab/XKIT/xh018/cadence/v10_0/spectre/v10_0_2/lpmos/models/mos/nhvd_bjt.scs
Reading file:  /opt/pdk/xfab/XKIT/xh018/cadence/v10_0/spectre/v10_0_2/lpmos/models/mos/nhhvd.scs
Reading file:  /opt/pdk/xfab/XKIT/xh018/cadence/v10_0/spectre/v10_0_2/lpmos/models/mos/nhhvd_bjt.scs
Reading file:  /opt/pdk/xfab/XKIT/xh018/cadence/v10_0/spectre/v10_0_2/lpmos/photo.scs
Reading file:  /opt/pdk/xfab/XKIT/xh018/cadence/v10_0/spectre/v10_0_2/lpmos/models/photo/tm_pho.scs
Reading file:  /opt/pdk/xfab/XKIT/xh018/cadence/v10_0/spectre/v10_0_2/lpmos/models/photo/dphoa.scs
Reading file:  /opt/pdk/xfab/XKIT/xh018/cadence/v10_0/spectre/v10_0_2/lpmos/models/photo/dpho.va
Reading link:  /opt/tools/cadence/installs/SPECTRE241/tools.lnx86/spectre/etc/ahdl/constants.h
Reading file:  /opt/tools/cadence/installs/SPECTRE241/tools.lnx86/spectre/etc/ahdl/constants.vams
Reading link:  /opt/tools/cadence/installs/SPECTRE241/tools.lnx86/spectre/etc/ahdl/discipline.h
Reading file:  /opt/tools/cadence/installs/SPECTRE241/tools.lnx86/spectre/etc/ahdl/disciplines.vams
Reading file:  /opt/pdk/xfab/XKIT/xh018/cadence/v10_0/spectre/v10_0_2/lpmos/models/photo/dphob.scs
Reading file:  /opt/pdk/xfab/XKIT/xh018/cadence/v10_0/spectre/v10_0_2/lpmos/models/photo/dphoc.scs
Reading file:  /opt/pdk/xfab/XKIT/xh018/cadence/v10_0/spectre/v10_0_2/lpmos/models/photo/iphoto_uv.va
Reading file:  /opt/pdk/xfab/XKIT/xh018/cadence/v10_0/spectre/v10_0_2/lpmos/models/photo/dphoc_cat.scs
Reading file:  /opt/pdk/xfab/XKIT/xh018/cadence/v10_0/spectre/v10_0_2/lpmos/models/photo/dphoc0.scs
Reading file:  /opt/pdk/xfab/XKIT/xh018/cadence/v10_0/spectre/v10_0_2/lpmos/models/photo/dphoc0_cat.scs
Reading file:  /opt/pdk/xfab/XKIT/xh018/cadence/v10_0/spectre/v10_0_2/lpmos/models/photo/dphocfp.scs
Reading file:  /opt/pdk/xfab/XKIT/xh018/cadence/v10_0/spectre/v10_0_2/lpmos/models/photo/dphocfp_cat.scs
Reading file:  /opt/pdk/xfab/XKIT/xh018/cadence/v10_0/spectre/v10_0_2/lpmos/models/photo/dphod.scs
Reading file:  /opt/pdk/xfab/XKIT/xh018/cadence/v10_0/spectre/v10_0_2/lpmos/models/photo/dphod_an1.scs
Reading file:  /opt/pdk/xfab/XKIT/xh018/cadence/v10_0/spectre/v10_0_2/lpmos/models/photo/dphod_an2.scs
Reading file:  /opt/pdk/xfab/XKIT/xh018/cadence/v10_0/spectre/v10_0_2/lpmos/models/photo/dphod0.scs
Reading file:  /opt/pdk/xfab/XKIT/xh018/cadence/v10_0/spectre/v10_0_2/lpmos/models/photo/dphod0_an1.scs
Reading file:  /opt/pdk/xfab/XKIT/xh018/cadence/v10_0/spectre/v10_0_2/lpmos/models/photo/dphod0_an2.scs
Reading file:  /opt/pdk/xfab/XKIT/xh018/cadence/v10_0/spectre/v10_0_2/lpmos/models/photo/dphodfp.scs
Reading file:  /opt/pdk/xfab/XKIT/xh018/cadence/v10_0/spectre/v10_0_2/lpmos/models/photo/dphodfp_an1.scs
Reading file:  /opt/pdk/xfab/XKIT/xh018/cadence/v10_0/spectre/v10_0_2/lpmos/models/photo/dphodfp_an2.scs
Reading file:  /opt/pdk/xfab/XKIT/xh018/cadence/v10_0/spectre/v10_0_2/lpmos/models/photo/dspada0.scs
Reading file:  /opt/pdk/xfab/XKIT/xh018/cadence/v10_0/spectre/v10_0_2/lpmos/models/photo/ispad.va
Reading file:  /opt/pdk/xfab/XKIT/xh018/cadence/v10_0/spectre/v10_0_2/lpmos/models/photo/dapb.scs
Reading file:  /opt/pdk/xfab/XKIT/xh018/cadence/v10_0/spectre/v10_0_2/lpmos/models/photo/iphoto_apd_trig.va
Reading file:  /opt/pdk/xfab/XKIT/xh018/cadence/v10_0/spectre/v10_0_2/lpmos/models/photo/dapb_jun.scs
Reading file:  /opt/pdk/xfab/XKIT/xh018/cadence/v10_0/spectre/v10_0_2/lpmos/models/photo/dapb_trig.scs
Reading file:  /opt/pdk/xfab/XKIT/xh018/cadence/v10_0/spectre/v10_0_2/lpmos/models/photo/dapb0.scs
Reading file:  /opt/pdk/xfab/XKIT/xh018/cadence/v10_0/spectre/v10_0_2/lpmos/models/photo/dapb0_jun.scs
Reading file:  /opt/pdk/xfab/XKIT/xh018/cadence/v10_0/spectre/v10_0_2/lpmos/models/photo/dspb.scs
Reading file:  /opt/pdk/xfab/XKIT/xh018/cadence/v10_0/spectre/v10_0_2/lpmos/models/photo/ispad_trig.va
Reading file:  /opt/pdk/xfab/XKIT/xh018/cadence/v10_0/spectre/v10_0_2/lpmos/models/photo/dspb_jun.scs
Reading file:  /opt/pdk/xfab/XKIT/xh018/cadence/v10_0/spectre/v10_0_2/lpmos/models/photo/dspb_trig.scs
Reading file:  /opt/pdk/xfab/XKIT/xh018/cadence/v10_0/spectre/v10_0_2/lpmos/models/photo/dspb0.scs
Reading file:  /opt/pdk/xfab/XKIT/xh018/cadence/v10_0/spectre/v10_0_2/lpmos/models/photo/dspb0_jun.scs
Reading file:  /opt/pdk/xfab/XKIT/xh018/cadence/v10_0/spectre/v10_0_2/lpmos/models/photo/dspbfep.scs
Reading file:  /opt/pdk/xfab/XKIT/xh018/cadence/v10_0/spectre/v10_0_2/lpmos/models/photo/dapda.scs
Reading file:  /opt/pdk/xfab/XKIT/xh018/cadence/v10_0/spectre/v10_0_2/lpmos/models/photo/iphoto_apd.va
Reading file:  /opt/pdk/xfab/XKIT/xh018/cadence/v10_0/spectre/v10_0_2/lpmos/models/photo/dapda_cat.scs
Reading file:  /opt/pdk/xfab/XKIT/xh018/cadence/v10_0/spectre/v10_0_2/lpmos/models/photo/dapda0.scs
Reading file:  /opt/pdk/xfab/XKIT/xh018/cadence/v10_0/spectre/v10_0_2/lpmos/models/photo/dspada.scs
Reading file:  /opt/pdk/xfab/XKIT/xh018/cadence/v10_0/spectre/v10_0_2/lpmos/models/photo/dspada_cat.scs
Reading file:  /opt/pdk/xfab/XKIT/xh018/cadence/v10_0/spectre/v10_0_2/lpmos/res.scs
Reading file:  /opt/pdk/xfab/XKIT/xh018/cadence/v10_0/spectre/v10_0_2/lpmos/models/res/tm_res.scs
Reading file:  /opt/pdk/xfab/XKIT/xh018/cadence/v10_0/spectre/v10_0_2/lpmos/models/res/rdn.scs
Reading file:  /opt/pdk/xfab/XKIT/xh018/cadence/v10_0/spectre/v10_0_2/lpmos/models/res/rdn_esd.scs
Reading file:  /opt/pdk/xfab/XKIT/xh018/cadence/v10_0/spectre/v10_0_2/lpmos/models/res/rdp.scs
Reading file:  /opt/pdk/xfab/XKIT/xh018/cadence/v10_0/spectre/v10_0_2/lpmos/models/res/rdp_io.scs
Reading file:  /opt/pdk/xfab/XKIT/xh018/cadence/v10_0/spectre/v10_0_2/lpmos/models/res/rdp_esd.scs
Reading file:  /opt/pdk/xfab/XKIT/xh018/cadence/v10_0/spectre/v10_0_2/lpmos/models/res/rnw.scs
Reading file:  /opt/pdk/xfab/XKIT/xh018/cadence/v10_0/spectre/v10_0_2/lpmos/models/res/rnw_scr.scs
Reading file:  /opt/pdk/xfab/XKIT/xh018/cadence/v10_0/spectre/v10_0_2/lpmos/models/res/rdn3.scs
Reading file:  /opt/pdk/xfab/XKIT/xh018/cadence/v10_0/spectre/v10_0_2/lpmos/models/res/rdp3.scs
Reading file:  /opt/pdk/xfab/XKIT/xh018/cadence/v10_0/spectre/v10_0_2/lpmos/models/res/rnw3.scs
Reading file:  /opt/pdk/xfab/XKIT/xh018/cadence/v10_0/spectre/v10_0_2/lpmos/models/res/rnw3_scr.scs
Reading file:  /opt/pdk/xfab/XKIT/xh018/cadence/v10_0/spectre/v10_0_2/lpmos/models/res/rdnwmv.scs
Reading file:  /opt/pdk/xfab/XKIT/xh018/cadence/v10_0/spectre/v10_0_2/lpmos/models/res/rnp1.scs
Reading file:  /opt/pdk/xfab/XKIT/xh018/cadence/v10_0/spectre/v10_0_2/lpmos/models/res/rnp1_3.scs
Reading file:  /opt/pdk/xfab/XKIT/xh018/cadence/v10_0/spectre/v10_0_2/lpmos/models/res/rpp1.scs
Reading file:  /opt/pdk/xfab/XKIT/xh018/cadence/v10_0/spectre/v10_0_2/lpmos/models/res/rpp1_3.scs
Reading file:  /opt/pdk/xfab/XKIT/xh018/cadence/v10_0/spectre/v10_0_2/lpmos/models/res/rpp1s.scs
Reading file:  /opt/pdk/xfab/XKIT/xh018/cadence/v10_0/spectre/v10_0_2/lpmos/models/res/rpp1s_3.scs
Reading file:  /opt/pdk/xfab/XKIT/xh018/cadence/v10_0/spectre/v10_0_2/lpmos/models/res/rnp1h.scs
Reading file:  /opt/pdk/xfab/XKIT/xh018/cadence/v10_0/spectre/v10_0_2/lpmos/models/res/rnp1h_3.scs
Reading file:  /opt/pdk/xfab/XKIT/xh018/cadence/v10_0/spectre/v10_0_2/lpmos/models/res/rpp1k1.scs
Reading file:  /opt/pdk/xfab/XKIT/xh018/cadence/v10_0/spectre/v10_0_2/lpmos/models/res/rpp1k1_3.scs
Reading file:  /opt/pdk/xfab/XKIT/xh018/cadence/v10_0/spectre/v10_0_2/lpmos/models/res/rctdn.scs
Reading file:  /opt/pdk/xfab/XKIT/xh018/cadence/v10_0/spectre/v10_0_2/lpmos/models/res/rctdp.scs
Reading file:  /opt/pdk/xfab/XKIT/xh018/cadence/v10_0/spectre/v10_0_2/lpmos/models/res/rctp1.scs
Reading file:  /opt/pdk/xfab/XKIT/xh018/cadence/v10_0/spectre/v10_0_2/lpmos/models/res/rsildn.scs
Reading file:  /opt/pdk/xfab/XKIT/xh018/cadence/v10_0/spectre/v10_0_2/lpmos/models/res/rsildp.scs
Reading file:  /opt/pdk/xfab/XKIT/xh018/cadence/v10_0/spectre/v10_0_2/lpmos/models/res/rsilnp1.scs
Reading file:  /opt/pdk/xfab/XKIT/xh018/cadence/v10_0/spectre/v10_0_2/lpmos/models/res/rsilpp1.scs
Reading file:  /opt/pdk/xfab/XKIT/xh018/cadence/v10_0/spectre/v10_0_2/lpmos/models/res/rsbdn.scs
Reading file:  /opt/pdk/xfab/XKIT/xh018/cadence/v10_0/spectre/v10_0_2/lpmos/models/res/rsbdp.scs
Reading file:  /opt/pdk/xfab/XKIT/xh018/cadence/v10_0/spectre/v10_0_2/lpmos/models/res/rsbdn3.scs
Reading file:  /opt/pdk/xfab/XKIT/xh018/cadence/v10_0/spectre/v10_0_2/lpmos/models/res/rsbdp3.scs
Reading file:  /opt/pdk/xfab/XKIT/xh018/cadence/v10_0/spectre/v10_0_2/lpmos/models/res/rsbnp1.scs
Reading file:  /opt/pdk/xfab/XKIT/xh018/cadence/v10_0/spectre/v10_0_2/lpmos/models/res/rsbpp1.scs
Reading file:  /opt/pdk/xfab/XKIT/xh018/cadence/v10_0/spectre/v10_0_2/lpmos/models/res/rsbpp1k1.scs
Reading file:  /opt/pdk/xfab/XKIT/xh018/cadence/v10_0/spectre/v10_0_2/lpmos/models/res/rm1.scs
Reading file:  /opt/pdk/xfab/XKIT/xh018/cadence/v10_0/spectre/v10_0_2/lpmos/models/res/rm2.scs
Reading file:  /opt/pdk/xfab/XKIT/xh018/cadence/v10_0/spectre/v10_0_2/lpmos/models/res/rm3.scs
Reading file:  /opt/pdk/xfab/XKIT/xh018/cadence/v10_0/spectre/v10_0_2/lpmos/models/res/rm4.scs
Reading file:  /opt/pdk/xfab/XKIT/xh018/cadence/v10_0/spectre/v10_0_2/lpmos/models/res/rm5.scs
Reading file:  /opt/pdk/xfab/XKIT/xh018/cadence/v10_0/spectre/v10_0_2/lpmos/models/res/rmtp.scs
Reading file:  /opt/pdk/xfab/XKIT/xh018/cadence/v10_0/spectre/v10_0_2/lpmos/models/res/rmtpl.scs
Reading file:  /opt/pdk/xfab/XKIT/xh018/cadence/v10_0/spectre/v10_0_2/lpmos/models/res/pfuse.scs
Reading file:  /opt/pdk/xfab/XKIT/xh018/cadence/v10_0/spectre/v10_0_2/lpmos/models/res/s_res.scs
Time for NDB Parsing: CPU = 184.866 ms, elapsed = 677.466 ms.
Time accumulated: CPU = 341.154 ms, elapsed = 677.467 ms.
Peak resident memory used = 198 Mbytes.

Time for Elaboration: CPU = 11.876 ms, elapsed = 12.5101 ms.
Time accumulated: CPU = 353.107 ms, elapsed = 690.124 ms.
Peak resident memory used = 208 Mbytes.


Notice from spectre during hierarchy flattening.
    The value 'psf' specified for the 'checklimitdest' option will no longer be supported in future releases. Use 'spectre -h' to see other recommended values for the 'checklimitdest' option.


Time for EDB Visiting: CPU = 572 us, elapsed = 853.777 us.
Time accumulated: CPU = 353.778 ms, elapsed = 691.15 ms.
Peak resident memory used = 209 Mbytes.


Notice from spectre during initial setup.
    Multithreading is disabled due to the size of the design being too small.


Netlist title:
        // Point Netlist Generated on: Nov  9 16:11:43 2025


Global user options:
         psfversion = 1.4.0
            vabstol = 1e-06
            iabstol = 1e-12
               temp = 27
               gmin = 1e-12
             rforce = 1
           maxnotes = 5
           maxwarns = 5
             digits = 5
               cols = 80
             pivrel = 0.001
           sensfile = ../psf/sens.output
     checklimitdest = psf
               save = allpub
             reltol = 0.001
               tnom = 27
             scalem = 1
              scale = 1

Scoped user options:

Circuit inventory:
              nodes 5
          capacitor 5     
             iprobe 1     
            isource 1     
           resistor 4     
               vccs 1     
            vsource 1     

Analysis and control statement inventory:
               info 6     
                 pz 1     

Output statements:
             .probe 0     
           .measure 0     
               save 0     


Notice from spectre during initial setup.
    APS enabled.

Time for parsing: CPU = 1.981 ms, elapsed = 15.0809 ms.
Time accumulated: CPU = 355.826 ms, elapsed = 706.362 ms.
Peak resident memory used = 212 Mbytes.

~~~~~~~~~~~~~~~~~~~~~~
Pre-Simulation Summary
~~~~~~~~~~~~~~~~~~~~~~
   -   (APS) Multi-threading. The recommended number of threads is 1, consider adding +mt=1 on command line.
~~~~~~~~~~~~~~~~~~~~~~

**************************************
PZ Analysis `pz': gm1 = (0 -> 227e-06)
**************************************
Convergence achieved in 2 iterations.
DC simulation time: CPU = 482 us, elapsed = 740.051 us.

Opening the PSF file ../psf/pz.pz ...

0              0.00% 
Convergence achieved in 2 iterations.
DC simulation time: CPU = 81 us, elapsed = 2.13313 ms.
                      Poles (Hz)

           Real                       Imaginary                 Qfactor

   1   -9.90683e+06                  0.00000e+00              5.00000e-01 
   2   -3.27762e+08                  0.00000e+00              5.00000e-01 

                      Zeros (Hz)
                      at I(IPRB0:in)/V0

           Real                       Imaginary                 Qfactor

   1    0.00000e+00                  0.00000e+00              nan         
   2   -1.05881e+06                  0.00000e+00              5.00000e-01 

Constant factor =  4.76190e-04

DC gain =  2.47130e-14


4.54e-06       2.00% 
Convergence achieved in 2 iterations.
DC simulation time: CPU = 124 us, elapsed = 142.813 us.
                      Poles (Hz)

           Real                       Imaginary                 Qfactor

   1   -1.03695e+07                  0.00000e+00              5.00000e-01 
   2   -3.27347e+08                  0.00000e+00              5.00000e-01 

                      Zeros (Hz)
                      at I(IPRB0:in)/V0

           Real                       Imaginary                 Qfactor

   1    5.03682e+06                  0.00000e+00              -5.00000e-01
   2   -6.14346e+06                  0.00000e+00              5.00000e-01 

Constant factor =  4.76190e-04

DC gain =  4.34092e-06

.
9.08e-06       4.00% 
Convergence achieved in 2 iterations.
DC simulation time: CPU = 77 us, elapsed = 92.9832 us.
                      Poles (Hz)

           Real                       Imaginary                 Qfactor

   1   -1.08334e+07                  0.00000e+00              5.00000e-01 
   2   -3.26931e+08                  0.00000e+00              5.00000e-01 

                      Zeros (Hz)
                      at I(IPRB0:in)/V0

           Real                       Imaginary                 Qfactor

   1    7.31074e+06                  0.00000e+00              -5.00000e-01
   2   -8.46521e+06                  0.00000e+00              5.00000e-01 

Constant factor =  4.76190e-04

DC gain =  8.32065e-06

...
13.62e-06      6.00% 
Convergence achieved in 2 iterations.
DC simulation time: CPU = 78 us, elapsed = 100.136 us.
                      Poles (Hz)

           Real                       Imaginary                 Qfactor

   1   -1.12986e+07                  0.00000e+00              5.00000e-01 
   2   -3.26514e+08                  0.00000e+00              5.00000e-01 

                      Zeros (Hz)
                      at I(IPRB0:in)/V0

           Real                       Imaginary                 Qfactor

   1    9.05244e+06                  0.00000e+00              -5.00000e-01
   2   -1.02547e+07                  0.00000e+00              5.00000e-01 

Constant factor =  4.76190e-04

DC gain =  1.19825e-05

....
18.16e-06      8.00% 
Convergence achieved in 2 iterations.
DC simulation time: CPU = 68 us, elapsed = 89.1685 us.
                      Poles (Hz)

           Real                       Imaginary                 Qfactor

   1   -1.17649e+07                  0.00000e+00              5.00000e-01 
   2   -3.26096e+08                  0.00000e+00              5.00000e-01 

                      Zeros (Hz)
                      at I(IPRB0:in)/V0

           Real                       Imaginary                 Qfactor

   1    1.05179e+07                  0.00000e+00              -5.00000e-01
   2   -1.17680e+07                  0.00000e+00              5.00000e-01 

Constant factor =  4.76190e-04

DC gain =  1.53630e-05

......
22.7e-06      10.00% 
Convergence achieved in 2 iterations.
DC simulation time: CPU = 54 us, elapsed = 73.9098 us.
                      Poles (Hz)

           Real                       Imaginary                 Qfactor

   1   -1.22325e+07                  0.00000e+00              5.00000e-01 
   2   -3.25676e+08                  0.00000e+00              5.00000e-01 

                      Zeros (Hz)
                      at I(IPRB0:in)/V0

           Real                       Imaginary                 Qfactor

   1    1.18065e+07                  0.00000e+00              -5.00000e-01
   2   -1.31044e+07                  0.00000e+00              5.00000e-01 

Constant factor =  4.76190e-04

DC gain =  1.84935e-05

......9
27.24e-06     12.00% 
Convergence achieved in 2 iterations.
DC simulation time: CPU = 67 us, elapsed = 87.0228 us.
                      Poles (Hz)

           Real                       Imaginary                 Qfactor

   1   -1.27014e+07                  0.00000e+00              5.00000e-01 
   2   -3.25255e+08                  0.00000e+00              5.00000e-01 

                      Zeros (Hz)
                      at I(IPRB0:in)/V0

           Real                       Imaginary                 Qfactor

   1    1.29695e+07                  0.00000e+00              -5.00000e-01
   2   -1.43152e+07                  0.00000e+00              5.00000e-01 

Constant factor =  4.76190e-04

DC gain =  2.14006e-05

......9.
31.78e-06     14.00% 
Convergence achieved in 2 iterations.
DC simulation time: CPU = 53 us, elapsed = 72.0024 us.
                      Poles (Hz)

           Real                       Imaginary                 Qfactor

   1   -1.31715e+07                  0.00000e+00              5.00000e-01 
   2   -3.24832e+08                  0.00000e+00              5.00000e-01 

                      Zeros (Hz)
                      at I(IPRB0:in)/V0

           Real                       Imaginary                 Qfactor

   1    1.40372e+07                  0.00000e+00              -5.00000e-01
   2   -1.54308e+07                  0.00000e+00              5.00000e-01 

Constant factor =  4.76190e-04

DC gain =  2.41075e-05

......9...
36.32e-06     16.00% 
Convergence achieved in 2 iterations.
DC simulation time: CPU = 49 us, elapsed = 63.8962 us.
                      Poles (Hz)

           Real                       Imaginary                 Qfactor

   1   -1.36429e+07                  0.00000e+00              5.00000e-01 
   2   -3.24409e+08                  0.00000e+00              5.00000e-01 

                      Zeros (Hz)
                      at I(IPRB0:in)/V0

           Real                       Imaginary                 Qfactor

   1    1.50294e+07                  0.00000e+00              -5.00000e-01
   2   -1.64709e+07                  0.00000e+00              5.00000e-01 

Constant factor =  4.76190e-04

DC gain =  2.66342e-05

......9....
40.86e-06     18.00% 
Convergence achieved in 2 iterations.
DC simulation time: CPU = 60 us, elapsed = 80.8239 us.
                      Poles (Hz)

           Real                       Imaginary                 Qfactor

   1   -1.41156e+07                  0.00000e+00              5.00000e-01 
   2   -3.23984e+08                  0.00000e+00              5.00000e-01 

                      Zeros (Hz)
                      at I(IPRB0:in)/V0

           Real                       Imaginary                 Qfactor

   1    1.59600e+07                  0.00000e+00              -5.00000e-01
   2   -1.74493e+07                  0.00000e+00              5.00000e-01 

Constant factor =  4.76190e-04

DC gain =  2.89980e-05

......9......
45.4e-06      20.00% 
Convergence achieved in 2 iterations.
DC simulation time: CPU = 52 us, elapsed = 66.0419 us.
                      Poles (Hz)

           Real                       Imaginary                 Qfactor

   1   -1.45896e+07                  0.00000e+00              5.00000e-01 
   2   -3.23558e+08                  0.00000e+00              5.00000e-01 

                      Zeros (Hz)
                      at I(IPRB0:in)/V0

           Real                       Imaginary                 Qfactor

   1    1.68390e+07                  0.00000e+00              -5.00000e-01
   2   -1.83761e+07                  0.00000e+00              5.00000e-01 

Constant factor =  4.76190e-04

DC gain =  3.12143e-05

......9......8
49.94e-06     22.00% 
Convergence achieved in 2 iterations.
DC simulation time: CPU = 47 us, elapsed = 59.1278 us.
                      Poles (Hz)

           Real                       Imaginary                 Qfactor

   1   -1.50649e+07                  0.00000e+00              5.00000e-01 
   2   -3.23130e+08                  0.00000e+00              5.00000e-01 

                      Zeros (Hz)
                      at I(IPRB0:in)/V0

           Real                       Imaginary                 Qfactor

   1    1.76739e+07                  0.00000e+00              -5.00000e-01
   2   -1.92588e+07                  0.00000e+00              5.00000e-01 

Constant factor =  4.76190e-04

DC gain =  3.32964e-05

......9......8.
54.48e-06     24.00% 
Convergence achieved in 2 iterations.
DC simulation time: CPU = 48 us, elapsed = 60.7967 us.
                      Poles (Hz)

           Real                       Imaginary                 Qfactor

   1   -1.55416e+07                  0.00000e+00              5.00000e-01 
   2   -3.22702e+08                  0.00000e+00              5.00000e-01 

                      Zeros (Hz)
                      at I(IPRB0:in)/V0

           Real                       Imaginary                 Qfactor

   1    1.84706e+07                  0.00000e+00              -5.00000e-01
   2   -2.01034e+07                  0.00000e+00              5.00000e-01 

Constant factor =  4.76190e-04

DC gain =  3.52562e-05

......9......8...
59.02e-06     26.00% 
Convergence achieved in 2 iterations.
DC simulation time: CPU = 61 us, elapsed = 76.0555 us.
                      Poles (Hz)

           Real                       Imaginary                 Qfactor

   1   -1.60195e+07                  0.00000e+00              5.00000e-01 
   2   -3.22271e+08                  0.00000e+00              5.00000e-01 

                      Zeros (Hz)
                      at I(IPRB0:in)/V0

           Real                       Imaginary                 Qfactor

   1    1.92339e+07                  0.00000e+00              -5.00000e-01
   2   -2.09144e+07                  0.00000e+00              5.00000e-01 

Constant factor =  4.76190e-04

DC gain =  3.71041e-05

......9......8....
63.56e-06     28.00% 
Convergence achieved in 2 iterations.
DC simulation time: CPU = 64 us, elapsed = 1.55377 ms.
                      Poles (Hz)

           Real                       Imaginary                 Qfactor

   1   -1.64988e+07                  0.00000e+00              5.00000e-01 
   2   -3.21840e+08                  0.00000e+00              5.00000e-01 

                      Zeros (Hz)
                      at I(IPRB0:in)/V0

           Real                       Imaginary                 Qfactor

   1    1.99674e+07                  0.00000e+00              -5.00000e-01
   2   -2.16958e+07                  0.00000e+00              5.00000e-01 

Constant factor =  4.76190e-04

DC gain =  3.88494e-05

......9......8......
68.1e-06      30.00% 
Convergence achieved in 2 iterations.
DC simulation time: CPU = 65 us, elapsed = 88.9301 us.
                      Poles (Hz)

           Real                       Imaginary                 Qfactor

   1   -1.69795e+07                  0.00000e+00              5.00000e-01 
   2   -3.21407e+08                  0.00000e+00              5.00000e-01 

                      Zeros (Hz)
                      at I(IPRB0:in)/V0

           Real                       Imaginary                 Qfactor

   1    2.06744e+07                  0.00000e+00              -5.00000e-01
   2   -2.24506e+07                  0.00000e+00              5.00000e-01 

Constant factor =  4.76190e-04

DC gain =  4.05005e-05

......9......8......7
72.64e-06     32.00% 
Convergence achieved in 2 iterations.
DC simulation time: CPU = 112 us, elapsed = 151.873 us.
                      Poles (Hz)

           Real                       Imaginary                 Qfactor

   1   -1.74616e+07                  0.00000e+00              5.00000e-01 
   2   -3.20973e+08                  0.00000e+00              5.00000e-01 

                      Zeros (Hz)
                      at I(IPRB0:in)/V0

           Real                       Imaginary                 Qfactor

   1    2.13574e+07                  0.00000e+00              -5.00000e-01
   2   -2.31815e+07                  0.00000e+00              5.00000e-01 

Constant factor =  4.76190e-04

DC gain =  4.20648e-05

......9......8......7.
77.18e-06     34.00% 
Convergence achieved in 2 iterations.
DC simulation time: CPU = 60 us, elapsed = 74.8634 us.
                      Poles (Hz)

           Real                       Imaginary                 Qfactor

   1   -1.79450e+07                  0.00000e+00              5.00000e-01 
   2   -3.20537e+08                  0.00000e+00              5.00000e-01 

                      Zeros (Hz)
                      at I(IPRB0:in)/V0

           Real                       Imaginary                 Qfactor

   1    2.20187e+07                  0.00000e+00              -5.00000e-01
   2   -2.38906e+07                  0.00000e+00              5.00000e-01 

Constant factor =  4.76190e-04

DC gain =  4.35489e-05

......9......8......7...
81.72e-06     36.00% 
Convergence achieved in 2 iterations.
DC simulation time: CPU = 112 us, elapsed = 128.984 us.
                      Poles (Hz)

           Real                       Imaginary                 Qfactor

   1   -1.84298e+07                  0.00000e+00              5.00000e-01 
   2   -3.20100e+08                  0.00000e+00              5.00000e-01 

                      Zeros (Hz)
                      at I(IPRB0:in)/V0

           Real                       Imaginary                 Qfactor

   1    2.26601e+07                  0.00000e+00              -5.00000e-01
   2   -2.45798e+07                  0.00000e+00              5.00000e-01 

Constant factor =  4.76190e-04

DC gain =  4.49589e-05

......9......8......7....
86.26e-06     38.00% 
Convergence achieved in 2 iterations.
DC simulation time: CPU = 86 us, elapsed = 1.41501 ms.
                      Poles (Hz)

           Real                       Imaginary                 Qfactor

   1   -1.89160e+07                  0.00000e+00              5.00000e-01 
   2   -3.19662e+08                  0.00000e+00              5.00000e-01 

                      Zeros (Hz)
                      at I(IPRB0:in)/V0

           Real                       Imaginary                 Qfactor

   1    2.32834e+07                  0.00000e+00              -5.00000e-01
   2   -2.52509e+07                  0.00000e+00              5.00000e-01 

Constant factor =  4.76190e-04

DC gain =  4.63002e-05

......9......8......7......
90.8e-06      40.00% 
Convergence achieved in 2 iterations.
DC simulation time: CPU = 97 us, elapsed = 113.964 us.
                      Poles (Hz)

           Real                       Imaginary                 Qfactor

   1   -1.94037e+07                  0.00000e+00              5.00000e-01 
   2   -3.19222e+08                  0.00000e+00              5.00000e-01 

                      Zeros (Hz)
                      at I(IPRB0:in)/V0

           Real                       Imaginary                 Qfactor

   1    2.38898e+07                  0.00000e+00              -5.00000e-01
   2   -2.59052e+07                  0.00000e+00              5.00000e-01 

Constant factor =  4.76190e-04

DC gain =  4.75776e-05

......9......8......7......6
95.34e-06     42.00% 
Convergence achieved in 2 iterations.
DC simulation time: CPU = 90 us, elapsed = 1.84298 ms.
                      Poles (Hz)

           Real                       Imaginary                 Qfactor

   1   -1.98928e+07                  0.00000e+00              5.00000e-01 
   2   -3.18781e+08                  0.00000e+00              5.00000e-01 

                      Zeros (Hz)
                      at I(IPRB0:in)/V0

           Real                       Imaginary                 Qfactor

   1    2.44807e+07                  0.00000e+00              -5.00000e-01
   2   -2.65439e+07                  0.00000e+00              5.00000e-01 

Constant factor =  4.76190e-04

DC gain =  4.87957e-05

......9......8......7......6.
99.88e-06     44.00% 
Convergence achieved in 2 iterations.
DC simulation time: CPU = 92 us, elapsed = 2.12908 ms.
                      Poles (Hz)

           Real                       Imaginary                 Qfactor

   1   -2.03833e+07                  0.00000e+00              5.00000e-01 
   2   -3.18338e+08                  0.00000e+00              5.00000e-01 

                      Zeros (Hz)
                      at I(IPRB0:in)/V0

           Real                       Imaginary                 Qfactor

   1    2.50571e+07                  0.00000e+00              -5.00000e-01
   2   -2.71682e+07                  0.00000e+00              5.00000e-01 

Constant factor =  4.76190e-04

DC gain =  4.99585e-05

......9......8......7......6...
104.42e-06    46.00% 
Convergence achieved in 2 iterations.
DC simulation time: CPU = 96 us, elapsed = 1.76883 ms.
                      Poles (Hz)

           Real                       Imaginary                 Qfactor

   1   -2.08753e+07                  0.00000e+00              5.00000e-01 
   2   -3.17894e+08                  0.00000e+00              5.00000e-01 

                      Zeros (Hz)
                      at I(IPRB0:in)/V0

           Real                       Imaginary                 Qfactor

   1    2.56201e+07                  0.00000e+00              -5.00000e-01
   2   -2.77790e+07                  0.00000e+00              5.00000e-01 

Constant factor =  4.76190e-04

DC gain =  5.10696e-05

......9......8......7......6....
108.96e-06    48.00% 
Convergence achieved in 2 iterations.
DC simulation time: CPU = 76 us, elapsed = 1.53899 ms.
                      Poles (Hz)

           Real                       Imaginary                 Qfactor

   1   -2.13688e+07                  0.00000e+00              5.00000e-01 
   2   -3.17448e+08                  0.00000e+00              5.00000e-01 

                      Zeros (Hz)
                      at I(IPRB0:in)/V0

           Real                       Imaginary                 Qfactor

   1    2.61705e+07                  0.00000e+00              -5.00000e-01
   2   -2.83772e+07                  0.00000e+00              5.00000e-01 

Constant factor =  4.76190e-04

DC gain =  5.21325e-05

......9......8......7......6......
113.5e-06     50.00% 
Convergence achieved in 2 iterations.
DC simulation time: CPU = 70 us, elapsed = 86.0691 us.
                      Poles (Hz)

           Real                       Imaginary                 Qfactor

   1   -2.18638e+07                  0.00000e+00              5.00000e-01 
   2   -3.17001e+08                  0.00000e+00              5.00000e-01 

                      Zeros (Hz)
                      at I(IPRB0:in)/V0

           Real                       Imaginary                 Qfactor

   1    2.67090e+07                  0.00000e+00              -5.00000e-01
   2   -2.89635e+07                  0.00000e+00              5.00000e-01 

Constant factor =  4.76190e-04

DC gain =  5.31501e-05

......9......8......7......6......5
118.04e-06    52.00% 
Convergence achieved in 2 iterations.
DC simulation time: CPU = 85 us, elapsed = 1.87707 ms.
                      Poles (Hz)

           Real                       Imaginary                 Qfactor

   1   -2.23602e+07                  0.00000e+00              5.00000e-01 
   2   -3.16552e+08                  0.00000e+00              5.00000e-01 

                      Zeros (Hz)
                      at I(IPRB0:in)/V0

           Real                       Imaginary                 Qfactor

   1    2.72364e+07                  0.00000e+00              -5.00000e-01
   2   -2.95388e+07                  0.00000e+00              5.00000e-01 

Constant factor =  4.76190e-04

DC gain =  5.41254e-05

......9......8......7......6......5.
122.58e-06    54.00% 
Convergence achieved in 2 iterations.
DC simulation time: CPU = 96 us, elapsed = 113.01 us.
                      Poles (Hz)

           Real                       Imaginary                 Qfactor

   1   -2.28582e+07                  0.00000e+00              5.00000e-01 
   2   -3.16102e+08                  0.00000e+00              5.00000e-01 

                      Zeros (Hz)
                      at I(IPRB0:in)/V0

           Real                       Imaginary                 Qfactor

   1    2.77534e+07                  0.00000e+00              -5.00000e-01
   2   -3.01035e+07                  0.00000e+00              5.00000e-01 

Constant factor =  4.76190e-04

DC gain =  5.50609e-05

......9......8......7......6......5...
127.12e-06    56.00% 
Convergence achieved in 2 iterations.
DC simulation time: CPU = 70 us, elapsed = 82.9697 us.
                      Poles (Hz)

           Real                       Imaginary                 Qfactor

   1   -2.33577e+07                  0.00000e+00              5.00000e-01 
   2   -3.15651e+08                  0.00000e+00              5.00000e-01 

                      Zeros (Hz)
                      at I(IPRB0:in)/V0

           Real                       Imaginary                 Qfactor

   1    2.82604e+07                  0.00000e+00              -5.00000e-01
   2   -3.06584e+07                  0.00000e+00              5.00000e-01 

Constant factor =  4.76190e-04

DC gain =  5.59591e-05

......9......8......7......6......5....
131.66e-06    58.00% 
Convergence achieved in 2 iterations.
DC simulation time: CPU = 104 us, elapsed = 1.60599 ms.
                      Poles (Hz)

           Real                       Imaginary                 Qfactor

   1   -2.38588e+07                  0.00000e+00              5.00000e-01 
   2   -3.15197e+08                  0.00000e+00              5.00000e-01 

                      Zeros (Hz)
                      at I(IPRB0:in)/V0

           Real                       Imaginary                 Qfactor

   1    2.87580e+07                  0.00000e+00              -5.00000e-01
   2   -3.12038e+07                  0.00000e+00              5.00000e-01 

Constant factor =  4.76190e-04

DC gain =  5.68220e-05

......9......8......7......6......5......
136.2e-06     60.00% 
Convergence achieved in 2 iterations.
DC simulation time: CPU = 76 us, elapsed = 1.35803 ms.
                      Poles (Hz)

           Real                       Imaginary                 Qfactor

   1   -2.43614e+07                  0.00000e+00              5.00000e-01 
   2   -3.14743e+08                  0.00000e+00              5.00000e-01 

                      Zeros (Hz)
                      at I(IPRB0:in)/V0

           Real                       Imaginary                 Qfactor

   1    2.92468e+07                  0.00000e+00              -5.00000e-01
   2   -3.17404e+07                  0.00000e+00              5.00000e-01 

Constant factor =  4.76190e-04

DC gain =  5.76518e-05

......9......8......7......6......5......4
140.74e-06    62.00% 
Convergence achieved in 2 iterations.
DC simulation time: CPU = 100 us, elapsed = 111.103 us.
                      Poles (Hz)

           Real                       Imaginary                 Qfactor

   1   -2.48657e+07                  0.00000e+00              5.00000e-01 
   2   -3.14286e+08                  0.00000e+00              5.00000e-01 

                      Zeros (Hz)
                      at I(IPRB0:in)/V0

           Real                       Imaginary                 Qfactor

   1    2.97270e+07                  0.00000e+00              -5.00000e-01
   2   -3.22685e+07                  0.00000e+00              5.00000e-01 

Constant factor =  4.76190e-04

DC gain =  5.84502e-05

......9......8......7......6......5......4.
145.28e-06    64.00% 
Convergence achieved in 2 iterations.
DC simulation time: CPU = 105 us, elapsed = 165.939 us.
                      Poles (Hz)

           Real                       Imaginary                 Qfactor

   1   -2.53715e+07                  0.00000e+00              5.00000e-01 
   2   -3.13828e+08                  0.00000e+00              5.00000e-01 

                      Zeros (Hz)
                      at I(IPRB0:in)/V0

           Real                       Imaginary                 Qfactor

   1    3.01993e+07                  0.00000e+00              -5.00000e-01
   2   -3.27886e+07                  0.00000e+00              5.00000e-01 

Constant factor =  4.76190e-04

DC gain =  5.92191e-05

......9......8......7......6......5......4...
149.82e-06    66.00% 
Convergence achieved in 2 iterations.
DC simulation time: CPU = 112 us, elapsed = 127.077 us.
                      Poles (Hz)

           Real                       Imaginary                 Qfactor

   1   -2.58789e+07                  0.00000e+00              5.00000e-01 
   2   -3.13369e+08                  0.00000e+00              5.00000e-01 

                      Zeros (Hz)
                      at I(IPRB0:in)/V0

           Real                       Imaginary                 Qfactor

   1    3.06638e+07                  0.00000e+00              -5.00000e-01
   2   -3.33010e+07                  0.00000e+00              5.00000e-01 

Constant factor =  4.76190e-04

DC gain =  5.99601e-05

......9......8......7......6......5......4....
154.36e-06    68.00% 
Convergence achieved in 2 iterations.
DC simulation time: CPU = 97 us, elapsed = 110.865 us.
                      Poles (Hz)

           Real                       Imaginary                 Qfactor

   1   -2.63879e+07                  0.00000e+00              5.00000e-01 
   2   -3.12907e+08                  0.00000e+00              5.00000e-01 

                      Zeros (Hz)
                      at I(IPRB0:in)/V0

           Real                       Imaginary                 Qfactor

   1    3.11210e+07                  0.00000e+00              -5.00000e-01
   2   -3.38060e+07                  0.00000e+00              5.00000e-01 

Constant factor =  4.76190e-04

DC gain =  6.06747e-05

......9......8......7......6......5......4......
158.9e-06     70.00% 
Convergence achieved in 2 iterations.
DC simulation time: CPU = 94 us, elapsed = 105.858 us.
                      Poles (Hz)

           Real                       Imaginary                 Qfactor

   1   -2.68986e+07                  0.00000e+00              5.00000e-01 
   2   -3.12444e+08                  0.00000e+00              5.00000e-01 

                      Zeros (Hz)
                      at I(IPRB0:in)/V0

           Real                       Imaginary                 Qfactor

   1    3.15712e+07                  0.00000e+00              -5.00000e-01
   2   -3.43040e+07                  0.00000e+00              5.00000e-01 

Constant factor =  4.76190e-04

DC gain =  6.13641e-05

......9......8......7......6......5......4......3
163.44e-06    72.00% 
Convergence achieved in 2 iterations.
DC simulation time: CPU = 84 us, elapsed = 102.997 us.
                      Poles (Hz)

           Real                       Imaginary                 Qfactor

   1   -2.74110e+07                  0.00000e+00              5.00000e-01 
   2   -3.11980e+08                  0.00000e+00              5.00000e-01 

                      Zeros (Hz)
                      at I(IPRB0:in)/V0

           Real                       Imaginary                 Qfactor

   1    3.20147e+07                  0.00000e+00              -5.00000e-01
   2   -3.47954e+07                  0.00000e+00              5.00000e-01 

Constant factor =  4.76190e-04

DC gain =  6.20298e-05

......9......8......7......6......5......4......3.
167.98e-06    74.00% 
Convergence achieved in 2 iterations.
DC simulation time: CPU = 93 us, elapsed = 111.103 us.
                      Poles (Hz)

           Real                       Imaginary                 Qfactor

   1   -2.79250e+07                  0.00000e+00              5.00000e-01 
   2   -3.11514e+08                  0.00000e+00              5.00000e-01 

                      Zeros (Hz)
                      at I(IPRB0:in)/V0

           Real                       Imaginary                 Qfactor

   1    3.24518e+07                  0.00000e+00              -5.00000e-01
   2   -3.52803e+07                  0.00000e+00              5.00000e-01 

Constant factor =  4.76190e-04

DC gain =  6.26730e-05

......9......8......7......6......5......4......3...
172.52e-06    76.00% 
Convergence achieved in 2 iterations.
DC simulation time: CPU = 91 us, elapsed = 105.858 us.
                      Poles (Hz)

           Real                       Imaginary                 Qfactor

   1   -2.84408e+07                  0.00000e+00              5.00000e-01 
   2   -3.11046e+08                  0.00000e+00              5.00000e-01 

                      Zeros (Hz)
                      at I(IPRB0:in)/V0

           Real                       Imaginary                 Qfactor

   1    3.28827e+07                  0.00000e+00              -5.00000e-01
   2   -3.57590e+07                  0.00000e+00              5.00000e-01 

Constant factor =  4.76190e-04

DC gain =  6.32947e-05

......9......8......7......6......5......4......3....
177.06e-06    78.00% 
Convergence achieved in 2 iterations.
DC simulation time: CPU = 107 us, elapsed = 124.931 us.
                      Poles (Hz)

           Real                       Imaginary                 Qfactor

   1   -2.89582e+07                  0.00000e+00              5.00000e-01 
   2   -3.10576e+08                  0.00000e+00              5.00000e-01 

                      Zeros (Hz)
                      at I(IPRB0:in)/V0

           Real                       Imaginary                 Qfactor

   1    3.33077e+07                  0.00000e+00              -5.00000e-01
   2   -3.62318e+07                  0.00000e+00              5.00000e-01 

Constant factor =  4.76190e-04

DC gain =  6.38961e-05

......9......8......7......6......5......4......3......
181.6e-06     80.00% 
Convergence achieved in 2 iterations.
DC simulation time: CPU = 72 us, elapsed = 85.1154 us.
                      Poles (Hz)

           Real                       Imaginary                 Qfactor

   1   -2.94774e+07                  0.00000e+00              5.00000e-01 
   2   -3.10105e+08                  0.00000e+00              5.00000e-01 

                      Zeros (Hz)
                      at I(IPRB0:in)/V0

           Real                       Imaginary                 Qfactor

   1    3.37269e+07                  0.00000e+00              -5.00000e-01
   2   -3.66989e+07                  0.00000e+00              5.00000e-01 

Constant factor =  4.76190e-04

DC gain =  6.44781e-05

......9......8......7......6......5......4......3......2
186.14e-06    82.00% 
Convergence achieved in 2 iterations.
DC simulation time: CPU = 63 us, elapsed = 78.9165 us.
                      Poles (Hz)

           Real                       Imaginary                 Qfactor

   1   -2.99983e+07                  0.00000e+00              5.00000e-01 
   2   -3.09632e+08                  0.00000e+00              5.00000e-01 

                      Zeros (Hz)
                      at I(IPRB0:in)/V0

           Real                       Imaginary                 Qfactor

   1    3.41407e+07                  0.00000e+00              -5.00000e-01
   2   -3.71604e+07                  0.00000e+00              5.00000e-01 

Constant factor =  4.76190e-04

DC gain =  6.50416e-05

......9......8......7......6......5......4......3......2.
190.68e-06    84.00% 
Convergence achieved in 2 iterations.
DC simulation time: CPU = 59 us, elapsed = 76.0555 us.
                      Poles (Hz)

           Real                       Imaginary                 Qfactor

   1   -3.05210e+07                  0.00000e+00              5.00000e-01 
   2   -3.09157e+08                  0.00000e+00              5.00000e-01 

                      Zeros (Hz)
                      at I(IPRB0:in)/V0

           Real                       Imaginary                 Qfactor

   1    3.45491e+07                  0.00000e+00              -5.00000e-01
   2   -3.76167e+07                  0.00000e+00              5.00000e-01 

Constant factor =  4.76190e-04

DC gain =  6.55875e-05

......9......8......7......6......5......4......3......2...
195.22e-06    86.00% 
Convergence achieved in 2 iterations.
DC simulation time: CPU = 61 us, elapsed = 81.0623 us.
                      Poles (Hz)

           Real                       Imaginary                 Qfactor

   1   -3.10455e+07                  0.00000e+00              5.00000e-01 
   2   -3.08680e+08                  0.00000e+00              5.00000e-01 

                      Zeros (Hz)
                      at I(IPRB0:in)/V0

           Real                       Imaginary                 Qfactor

   1    3.49525e+07                  0.00000e+00              -5.00000e-01
   2   -3.80679e+07                  0.00000e+00              5.00000e-01 

Constant factor =  4.76190e-04

DC gain =  6.61166e-05

......9......8......7......6......5......4......3......2....
199.76e-06    88.00% 
Convergence achieved in 2 iterations.
DC simulation time: CPU = 89 us, elapsed = 103.951 us.
                      Poles (Hz)

           Real                       Imaginary                 Qfactor

   1   -3.15718e+07                  0.00000e+00              5.00000e-01 
   2   -3.08202e+08                  0.00000e+00              5.00000e-01 

                      Zeros (Hz)
                      at I(IPRB0:in)/V0

           Real                       Imaginary                 Qfactor

   1    3.53509e+07                  0.00000e+00              -5.00000e-01
   2   -3.85142e+07                  0.00000e+00              5.00000e-01 

Constant factor =  4.76190e-04

DC gain =  6.66297e-05

......9......8......7......6......5......4......3......2......
204.3e-06     90.00% 
Convergence achieved in 2 iterations.
DC simulation time: CPU = 64 us, elapsed = 92.0296 us.
                      Poles (Hz)

           Real                       Imaginary                 Qfactor

   1   -3.20999e+07                  0.00000e+00              5.00000e-01 
   2   -3.07722e+08                  0.00000e+00              5.00000e-01 

                      Zeros (Hz)
                      at I(IPRB0:in)/V0

           Real                       Imaginary                 Qfactor

   1    3.57446e+07                  0.00000e+00              -5.00000e-01
   2   -3.89557e+07                  0.00000e+00              5.00000e-01 

Constant factor =  4.76190e-04

DC gain =  6.71275e-05

......9......8......7......6......5......4......3......2......1
208.84e-06    92.00% 
Convergence achieved in 2 iterations.
DC simulation time: CPU = 63 us, elapsed = 74.1482 us.
                      Poles (Hz)

           Real                       Imaginary                 Qfactor

   1   -3.26299e+07                  0.00000e+00              5.00000e-01 
   2   -3.07239e+08                  0.00000e+00              5.00000e-01 

                      Zeros (Hz)
                      at I(IPRB0:in)/V0

           Real                       Imaginary                 Qfactor

   1    3.61337e+07                  0.00000e+00              -5.00000e-01
   2   -3.93926e+07                  0.00000e+00              5.00000e-01 

Constant factor =  4.76190e-04

DC gain =  6.76107e-05

......9......8......7......6......5......4......3......2......1.
213.38e-06    94.00% 
Convergence achieved in 2 iterations.
DC simulation time: CPU = 59 us, elapsed = 71.0487 us.
                      Poles (Hz)

           Real                       Imaginary                 Qfactor

   1   -3.31617e+07                  0.00000e+00              5.00000e-01 
   2   -3.06755e+08                  0.00000e+00              5.00000e-01 

                      Zeros (Hz)
                      at I(IPRB0:in)/V0

           Real                       Imaginary                 Qfactor

   1    3.65183e+07                  0.00000e+00              -5.00000e-01
   2   -3.98250e+07                  0.00000e+00              5.00000e-01 

Constant factor =  4.76190e-04

DC gain =  6.80799e-05

......9......8......7......6......5......4......3......2......1...
217.92e-06    96.00% 
Convergence achieved in 2 iterations.
DC simulation time: CPU = 80 us, elapsed = 1.43695 ms.
                      Poles (Hz)

           Real                       Imaginary                 Qfactor

   1   -3.36954e+07                  0.00000e+00              5.00000e-01 
   2   -3.06269e+08                  0.00000e+00              5.00000e-01 

                      Zeros (Hz)
                      at I(IPRB0:in)/V0

           Real                       Imaginary                 Qfactor

   1    3.68986e+07                  0.00000e+00              -5.00000e-01
   2   -4.02532e+07                  0.00000e+00              5.00000e-01 

Constant factor =  4.76190e-04

DC gain =  6.85356e-05

......9......8......7......6......5......4......3......2......1....
222.46e-06    98.00% 
Convergence achieved in 2 iterations.
DC simulation time: CPU = 77 us, elapsed = 92.9832 us.
                      Poles (Hz)

           Real                       Imaginary                 Qfactor

   1   -3.42311e+07                  0.00000e+00              5.00000e-01 
   2   -3.05782e+08                  0.00000e+00              5.00000e-01 

                      Zeros (Hz)
                      at I(IPRB0:in)/V0

           Real                       Imaginary                 Qfactor

   1    3.72747e+07                  0.00000e+00              -5.00000e-01
   2   -4.06771e+07                  0.00000e+00              5.00000e-01 

Constant factor =  4.76190e-04

DC gain =  6.89786e-05

......9......8......7......6......5......4......3......2......1......
227e-06      100.00% 
Convergence achieved in 2 iterations.
DC simulation time: CPU = 72 us, elapsed = 88.2149 us.
                      Poles (Hz)

           Real                       Imaginary                 Qfactor

   1   -3.47686e+07                  0.00000e+00              5.00000e-01 
   2   -3.05292e+08                  0.00000e+00              5.00000e-01 

                      Zeros (Hz)
                      at I(IPRB0:in)/V0

           Real                       Imaginary                 Qfactor

   1    3.76468e+07                  0.00000e+00              -5.00000e-01
   2   -4.10970e+07                  0.00000e+00              5.00000e-01 

Constant factor =  4.76190e-04

DC gain =  6.94092e-05

......9......8......7......6......5......4......3......2......1......0
Accumulated DC solution time =            29.1796 ms.
Intrinsic pz analysis time =              177.602 ms.
Total time required for pz analysis `pz': CPU = 55.18 ms, elapsed = 206.86 ms, util. = 26.7%.
Time accumulated: CPU = 421.587 ms, elapsed = 927.668 ms.
Peak resident memory used = 212 Mbytes.

modelParameter: writing model parameter values to rawfile.

Opening the PSF file ../psf/modelParameter.info ...
element: writing instance parameter values to rawfile.

Opening the PSF file ../psf/element.info ...
outputParameter: writing output parameter values to rawfile.

Opening the PSF file ../psf/outputParameter.info ...
designParamVals: writing netlist parameters to rawfile.

Opening the PSFASCII file ../psf/designParamVals.info ...
primitives: writing primitives to rawfile.

Opening the PSFASCII file ../psf/primitives.info.primitives ...
subckts: writing subcircuits to rawfile.

Opening the PSFASCII file ../psf/subckts.info.subckts ...
Licensing Information:
Lic Summary:
[16:11:46.256434] Cdslmd servers:3000@lic08.ug.kth.se
[16:11:46.780771] Feature usage summary:
[16:11:46.780771] Virtuoso_Multi_mode_Simulation


Aggregate audit (4:11:46 PM, Sun Nov 9, 2025):
Time used: CPU = 433 ms, elapsed = 981 ms, util. = 44.1%.
Time spent in licensing: elapsed = 412 ms, percentage of total = 41.9%.
Peak memory used = 217 Mbytes.
Simulation started at: 4:11:45 PM, Sun Nov 9, 2025, ended at: 4:11:46 PM, Sun Nov 9, 2025, with elapsed time (wall clock): 981 ms.
spectre completes with 0 errors, 0 warnings, and 4 notices.
