
Spectre (R) Circuit Simulator
Version 24.1.0.288.isr5 64bit -- 3 Apr 2025
Copyright (C) 1989-2025 Cadence Design Systems, Inc. All rights reserved worldwide. Cadence and Spectre are registered trademarks of Cadence Design Systems, Inc. All others are the property of their respective holders.

Includes RSA BSAFE(R) Cryptographic or Security Protocol Software from RSA Security, Inc.

User: saul   Host: 680bb75d07d9   HostID: 11AC0200   PID: 39679
Memory  available: 23.2108 GB  physical: 27.3104 GB
Linux   : Rocky Linux release 8.10 (Green Obsidian)
CPU Type: 11th Gen Intel(R) Core(TM) i7-11700K @ 3.60GHz
All processors running at 3600.0 MHz
        Socket: Processors
        0:       0,  1,  2,  3,  4,  5,  6,  7,  8,  9
                10, 11, 12, 13, 14, 15
        
System load averages (1min, 5min, 15min) : 13.2 %, 11.0 %, 8.6 %
HPC is enabled


Simulating `input.scs' on 680bb75d07d9 at 3:20:56 PM, Sun Nov 9, 2025 (process id: 39679).
Current working directory: /home/saul/projects/FIL3601/Sim/LAB2/transconductance/adexl/results/data/Interactive.54/1/rootlocus/netlist
Command line:
    /opt/tools/cadence/installs/SPECTRE241/tools/bin/spectre -64  \
        input.scs +escchars +log ../psf/spectre.out -format psfxl -raw  \
        ../psf +aps +mt +lqtimeout 900 -maxw 5 -maxn 5 -env ade  \
        -ahdllibdir  \
        /home/saul/projects/FIL3601/Sim/LAB2/transconductance/adexl/results/data/Interactive.54/sharedData/Job19/ahdl/input.ahdlSimDB  \
        +logstatus  \
        +adespetkn=0001089D13A302B663E41FB550AF0DF415A679A322D5069144BF588C12F604E07EF416DC01A319B562BB63D301E047A945A3689D22D43B9E47A061E249EC4F927AFE79D15D9175FF34980CBD6B9974D334982B841BA441B756AF27DE1FF943E50EAE79D12DF874D3349879D118F874D3349810C1A9ADC5865D880000369C

Simulation Id: 3zuabts8OMjUVUNf
Licensing Information:
[15:20:56.188825] Configured Lic search path (24.01-s002): 3000@lic08.ug.kth.se

Licensing Information:
[15:20:56.361426] Periodic Lic check successful

Loading /opt/tools/cadence/installs/SPECTRE241/tools.lnx86/cmi/lib/64bit/5.0/libinfineon_sh.so ...
Loading /opt/tools/cadence/installs/SPECTRE241/tools.lnx86/cmi/lib/64bit/5.0/libphilips_I_sh.so ...
Loading /opt/tools/cadence/installs/SPECTRE241/tools.lnx86/cmi/lib/64bit/5.0/libphilips_sh.so ...
Loading /opt/tools/cadence/installs/SPECTRE241/tools.lnx86/cmi/lib/64bit/5.0/libsparam_sh.so ...
Loading /opt/tools/cadence/installs/SPECTRE241/tools.lnx86/cmi/lib/64bit/5.0/libstmodels_sh.so ...
Reading file:  /home/saul/projects/FIL3601/Sim/LAB2/transconductance/adexl/results/data/Interactive.54/1/rootlocus/netlist/input.scs
Reading file:  /opt/tools/cadence/installs/SPECTRE241/tools.lnx86/spectre/etc/configs/spectre.cfg
Reading file:  /opt/pdk/xfab/XKIT/xh018/cadence/v10_0/spectre/v10_0_2/lpmos/config.scs
Reading file:  /opt/pdk/xfab/XKIT/xh018/cadence/v10_0/spectre/v10_0_2/lpmos/param.scs
Reading file:  /opt/pdk/xfab/XKIT/xh018/cadence/v10_0/spectre/v10_0_2/lpmos/bip.scs
Reading file:  /opt/pdk/xfab/XKIT/xh018/cadence/v10_0/spectre/v10_0_2/lpmos/models/bip/tm_bip.scs
Reading file:  /opt/pdk/xfab/XKIT/xh018/cadence/v10_0/spectre/v10_0_2/lpmos/models/bip/qpva.scs
Reading file:  /opt/pdk/xfab/XKIT/xh018/cadence/v10_0/spectre/v10_0_2/lpmos/models/bip/qpvb.scs
Reading file:  /opt/pdk/xfab/XKIT/xh018/cadence/v10_0/spectre/v10_0_2/lpmos/models/bip/qpvc.scs
Reading file:  /opt/pdk/xfab/XKIT/xh018/cadence/v10_0/spectre/v10_0_2/lpmos/models/bip/qpva3.scs
Reading file:  /opt/pdk/xfab/XKIT/xh018/cadence/v10_0/spectre/v10_0_2/lpmos/models/bip/qpvb3.scs
Reading file:  /opt/pdk/xfab/XKIT/xh018/cadence/v10_0/spectre/v10_0_2/lpmos/models/bip/qpvc3.scs
Reading file:  /opt/pdk/xfab/XKIT/xh018/cadence/v10_0/spectre/v10_0_2/lpmos/models/bip/qnva.scs
Reading file:  /opt/pdk/xfab/XKIT/xh018/cadence/v10_0/spectre/v10_0_2/lpmos/models/bip/qnvb.scs
Reading file:  /opt/pdk/xfab/XKIT/xh018/cadence/v10_0/spectre/v10_0_2/lpmos/models/bip/qnvba.scs
Reading file:  /opt/pdk/xfab/XKIT/xh018/cadence/v10_0/spectre/v10_0_2/lpmos/models/bip/qnvbb.scs
Reading file:  /opt/pdk/xfab/XKIT/xh018/cadence/v10_0/spectre/v10_0_2/lpmos/models/bip/qnvc.scs
Reading file:  /opt/pdk/xfab/XKIT/xh018/cadence/v10_0/spectre/v10_0_2/lpmos/models/bip/qnvca.scs
Reading file:  /opt/pdk/xfab/XKIT/xh018/cadence/v10_0/spectre/v10_0_2/lpmos/models/bip/qnvcb.scs
Reading file:  /opt/pdk/xfab/XKIT/xh018/cadence/v10_0/spectre/v10_0_2/lpmos/models/bip/qpvhscr.scs
Reading file:  /opt/pdk/xfab/XKIT/xh018/cadence/v10_0/spectre/v10_0_2/lpmos/models/bip/qpvascr.scs
Reading file:  /opt/pdk/xfab/XKIT/xh018/cadence/v10_0/spectre/v10_0_2/lpmos/models/bip/qpvhbscr.scs
Reading file:  /opt/pdk/xfab/XKIT/xh018/cadence/v10_0/spectre/v10_0_2/lpmos/models/bip/qpv_pa.scs
Reading file:  /opt/pdk/xfab/XKIT/xh018/cadence/v10_0/spectre/v10_0_2/lpmos/models/bip/qpv_pb.scs
Reading file:  /opt/pdk/xfab/XKIT/xh018/cadence/v10_0/spectre/v10_0_2/lpmos/models/bip/qpv_pc.scs
Reading file:  /opt/pdk/xfab/XKIT/xh018/cadence/v10_0/spectre/v10_0_2/lpmos/models/bip/qpv_pd.scs
Reading file:  /opt/pdk/xfab/XKIT/xh018/cadence/v10_0/spectre/v10_0_2/lpmos/models/bip/qpv_pe.scs
Reading file:  /opt/pdk/xfab/XKIT/xh018/cadence/v10_0/spectre/v10_0_2/lpmos/models/bip/qpv_pf.scs
Reading file:  /opt/pdk/xfab/XKIT/xh018/cadence/v10_0/spectre/v10_0_2/lpmos/models/bip/qpl_pa.scs
Reading file:  /opt/pdk/xfab/XKIT/xh018/cadence/v10_0/spectre/v10_0_2/lpmos/models/bip/qpl_pb.scs
Reading file:  /opt/pdk/xfab/XKIT/xh018/cadence/v10_0/spectre/v10_0_2/lpmos/models/bip/qpl_pc.scs
Reading file:  /opt/pdk/xfab/XKIT/xh018/cadence/v10_0/spectre/v10_0_2/lpmos/models/bip/qpl_pd.scs
Reading file:  /opt/pdk/xfab/XKIT/xh018/cadence/v10_0/spectre/v10_0_2/lpmos/models/bip/qpl_pe.scs
Reading file:  /opt/pdk/xfab/XKIT/xh018/cadence/v10_0/spectre/v10_0_2/lpmos/models/bip/qpl_pf.scs
Reading file:  /opt/pdk/xfab/XKIT/xh018/cadence/v10_0/spectre/v10_0_2/lpmos/models/bip/qnl_pa.scs
Reading file:  /opt/pdk/xfab/XKIT/xh018/cadence/v10_0/spectre/v10_0_2/lpmos/models/bip/qnl_pb.scs
Reading file:  /opt/pdk/xfab/XKIT/xh018/cadence/v10_0/spectre/v10_0_2/lpmos/models/bip/qnl_pc.scs
Reading file:  /opt/pdk/xfab/XKIT/xh018/cadence/v10_0/spectre/v10_0_2/lpmos/models/bip/qnl_pd.scs
Reading file:  /opt/pdk/xfab/XKIT/xh018/cadence/v10_0/spectre/v10_0_2/lpmos/models/bip/qnl_pe.scs
Reading file:  /opt/pdk/xfab/XKIT/xh018/cadence/v10_0/spectre/v10_0_2/lpmos/models/bip/qnl_pf.scs
Reading file:  /opt/pdk/xfab/XKIT/xh018/cadence/v10_0/spectre/v10_0_2/lpmos/cap.scs
Reading file:  /opt/pdk/xfab/XKIT/xh018/cadence/v10_0/spectre/v10_0_2/lpmos/models/cap/tm_cap.scs
Reading file:  /opt/pdk/xfab/XKIT/xh018/cadence/v10_0/spectre/v10_0_2/lpmos/models/cap/csandwt3.scs
Reading file:  /opt/pdk/xfab/XKIT/xh018/cadence/v10_0/spectre/v10_0_2/lpmos/models/cap/csandwt4.scs
Reading file:  /opt/pdk/xfab/XKIT/xh018/cadence/v10_0/spectre/v10_0_2/lpmos/models/cap/csandwt5.scs
Reading file:  /opt/pdk/xfab/XKIT/xh018/cadence/v10_0/spectre/v10_0_2/lpmos/models/cap/csf2p.scs
Reading file:  /opt/pdk/xfab/XKIT/xh018/cadence/v10_0/spectre/v10_0_2/lpmos/models/cap/csf3p.scs
Reading file:  /opt/pdk/xfab/XKIT/xh018/cadence/v10_0/spectre/v10_0_2/lpmos/models/cap/csf3.scs
Reading file:  /opt/pdk/xfab/XKIT/xh018/cadence/v10_0/spectre/v10_0_2/lpmos/models/cap/csf4.scs
Reading file:  /opt/pdk/xfab/XKIT/xh018/cadence/v10_0/spectre/v10_0_2/lpmos/models/cap/csf5.scs
Reading file:  /opt/pdk/xfab/XKIT/xh018/cadence/v10_0/spectre/v10_0_2/lpmos/models/cap/csft4.scs
Reading file:  /opt/pdk/xfab/XKIT/xh018/cadence/v10_0/spectre/v10_0_2/lpmos/models/cap/csft5.scs
Reading file:  /opt/pdk/xfab/XKIT/xh018/cadence/v10_0/spectre/v10_0_2/lpmos/models/cap/csft6.scs
Reading file:  /opt/pdk/xfab/XKIT/xh018/cadence/v10_0/spectre/v10_0_2/lpmos/models/cap/csf3a.scs
Reading file:  /opt/pdk/xfab/XKIT/xh018/cadence/v10_0/spectre/v10_0_2/lpmos/models/cap/csf4a.scs
Reading file:  /opt/pdk/xfab/XKIT/xh018/cadence/v10_0/spectre/v10_0_2/lpmos/models/cap/csf5a.scs
Reading file:  /opt/pdk/xfab/XKIT/xh018/cadence/v10_0/spectre/v10_0_2/lpmos/models/cap/csft4a.scs
Reading file:  /opt/pdk/xfab/XKIT/xh018/cadence/v10_0/spectre/v10_0_2/lpmos/models/cap/csft5a.scs
Reading file:  /opt/pdk/xfab/XKIT/xh018/cadence/v10_0/spectre/v10_0_2/lpmos/models/cap/csft6a.scs
Reading file:  /opt/pdk/xfab/XKIT/xh018/cadence/v10_0/spectre/v10_0_2/lpmos/models/cap/cif3a.scs
Reading file:  /opt/pdk/xfab/XKIT/xh018/cadence/v10_0/spectre/v10_0_2/lpmos/models/cap/cif4a.scs
Reading file:  /opt/pdk/xfab/XKIT/xh018/cadence/v10_0/spectre/v10_0_2/lpmos/models/cap/cif5a.scs
Reading file:  /opt/pdk/xfab/XKIT/xh018/cadence/v10_0/spectre/v10_0_2/lpmos/models/cap/cift4a.scs
Reading file:  /opt/pdk/xfab/XKIT/xh018/cadence/v10_0/spectre/v10_0_2/lpmos/models/cap/cift5a.scs
Reading file:  /opt/pdk/xfab/XKIT/xh018/cadence/v10_0/spectre/v10_0_2/lpmos/models/cap/cift6a.scs
Reading file:  /opt/pdk/xfab/XKIT/xh018/cadence/v10_0/spectre/v10_0_2/lpmos/models/cap/cmm3.scs
Reading file:  /opt/pdk/xfab/XKIT/xh018/cadence/v10_0/spectre/v10_0_2/lpmos/models/cap/cmm4t.scs
Reading file:  /opt/pdk/xfab/XKIT/xh018/cadence/v10_0/spectre/v10_0_2/lpmos/models/cap/cmm4.scs
Reading file:  /opt/pdk/xfab/XKIT/xh018/cadence/v10_0/spectre/v10_0_2/lpmos/models/cap/cmm5t.scs
Reading file:  /opt/pdk/xfab/XKIT/xh018/cadence/v10_0/spectre/v10_0_2/lpmos/models/cap/cmm6t.scs
Reading file:  /opt/pdk/xfab/XKIT/xh018/cadence/v10_0/spectre/v10_0_2/lpmos/models/cap/cdmm4.scs
Reading file:  /opt/pdk/xfab/XKIT/xh018/cadence/v10_0/spectre/v10_0_2/lpmos/models/cap/cdmm4t.scs
Reading file:  /opt/pdk/xfab/XKIT/xh018/cadence/v10_0/spectre/v10_0_2/lpmos/models/cap/ctmm5.scs
Reading file:  /opt/pdk/xfab/XKIT/xh018/cadence/v10_0/spectre/v10_0_2/lpmos/models/cap/ctmm5t.scs
Reading file:  /opt/pdk/xfab/XKIT/xh018/cadence/v10_0/spectre/v10_0_2/lpmos/models/cap/cmmh3.scs
Reading file:  /opt/pdk/xfab/XKIT/xh018/cadence/v10_0/spectre/v10_0_2/lpmos/models/cap/cmmh4t.scs
Reading file:  /opt/pdk/xfab/XKIT/xh018/cadence/v10_0/spectre/v10_0_2/lpmos/models/cap/cmmh4.scs
Reading file:  /opt/pdk/xfab/XKIT/xh018/cadence/v10_0/spectre/v10_0_2/lpmos/models/cap/cmmh5t.scs
Reading file:  /opt/pdk/xfab/XKIT/xh018/cadence/v10_0/spectre/v10_0_2/lpmos/models/cap/cmmh6t.scs
Reading file:  /opt/pdk/xfab/XKIT/xh018/cadence/v10_0/spectre/v10_0_2/lpmos/models/cap/cdmmh4.scs
Reading file:  /opt/pdk/xfab/XKIT/xh018/cadence/v10_0/spectre/v10_0_2/lpmos/models/cap/cdmmh4t.scs
Reading file:  /opt/pdk/xfab/XKIT/xh018/cadence/v10_0/spectre/v10_0_2/lpmos/models/cap/ctmmh5.scs
Reading file:  /opt/pdk/xfab/XKIT/xh018/cadence/v10_0/spectre/v10_0_2/lpmos/models/cap/ctmmh5t.scs
Reading file:  /opt/pdk/xfab/XKIT/xh018/cadence/v10_0/spectre/v10_0_2/lpmos/models/cap/mosvc.scs
Reading file:  /opt/pdk/xfab/XKIT/xh018/cadence/v10_0/spectre/v10_0_2/lpmos/models/cap/mosvc_pmos.scs
Reading file:  /opt/pdk/xfab/XKIT/xh018/cadence/v10_0/spectre/v10_0_2/lpmos/models/cap/mosvci.scs
Reading file:  /opt/pdk/xfab/XKIT/xh018/cadence/v10_0/spectre/v10_0_2/lpmos/models/cap/mosvci_nmos.scs
Reading file:  /opt/pdk/xfab/XKIT/xh018/cadence/v10_0/spectre/v10_0_2/lpmos/models/cap/mosvci_m.scs
Reading file:  /opt/pdk/xfab/XKIT/xh018/cadence/v10_0/spectre/v10_0_2/lpmos/models/cap/mosvc3.scs
Reading file:  /opt/pdk/xfab/XKIT/xh018/cadence/v10_0/spectre/v10_0_2/lpmos/models/cap/mosvc3_pmos.scs
Reading file:  /opt/pdk/xfab/XKIT/xh018/cadence/v10_0/spectre/v10_0_2/lpmos/models/cap/mosvc3i.scs
Reading file:  /opt/pdk/xfab/XKIT/xh018/cadence/v10_0/spectre/v10_0_2/lpmos/models/cap/mosvc3i_nmos.scs
Reading file:  /opt/pdk/xfab/XKIT/xh018/cadence/v10_0/spectre/v10_0_2/lpmos/models/cap/mosvc3i_m.scs
Reading file:  /opt/pdk/xfab/XKIT/xh018/cadence/v10_0/spectre/v10_0_2/lpmos/models/cap/cpod.scs
Reading file:  /opt/pdk/xfab/XKIT/xh018/cadence/v10_0/spectre/v10_0_2/lpmos/models/cap/cpod_i.scs
Reading file:  /opt/pdk/xfab/XKIT/xh018/cadence/v10_0/spectre/v10_0_2/lpmos/models/cap/cpodhv.scs
Reading file:  /opt/pdk/xfab/XKIT/xh018/cadence/v10_0/spectre/v10_0_2/lpmos/models/cap/cpodhv_i.scs
Reading file:  /opt/pdk/xfab/XKIT/xh018/cadence/v10_0/spectre/v10_0_2/lpmos/models/cap/cp1sub.scs
Reading file:  /opt/pdk/xfab/XKIT/xh018/cadence/v10_0/spectre/v10_0_2/lpmos/models/cap/cp1suba.scs
Reading file:  /opt/pdk/xfab/XKIT/xh018/cadence/v10_0/spectre/v10_0_2/lpmos/models/cap/cp1subp.scs
Reading file:  /opt/pdk/xfab/XKIT/xh018/cadence/v10_0/spectre/v10_0_2/lpmos/models/cap/tag_25v.scs
Reading file:  /opt/pdk/xfab/XKIT/xh018/cadence/v10_0/spectre/v10_0_2/lpmos/models/cap/tag_60v.scs
Reading file:  /opt/pdk/xfab/XKIT/xh018/cadence/v10_0/spectre/v10_0_2/lpmos/dio.scs
Reading file:  /opt/pdk/xfab/XKIT/xh018/cadence/v10_0/spectre/v10_0_2/lpmos/models/dio/tm_dio.scs
Reading file:  /opt/pdk/xfab/XKIT/xh018/cadence/v10_0/spectre/v10_0_2/lpmos/models/dio/dn.scs
Reading file:  /opt/pdk/xfab/XKIT/xh018/cadence/v10_0/spectre/v10_0_2/lpmos/models/dio/dp.scs
Reading file:  /opt/pdk/xfab/XKIT/xh018/cadence/v10_0/spectre/v10_0_2/lpmos/models/dio/dnw.scs
Reading file:  /opt/pdk/xfab/XKIT/xh018/cadence/v10_0/spectre/v10_0_2/lpmos/models/dio/dn3.scs
Reading file:  /opt/pdk/xfab/XKIT/xh018/cadence/v10_0/spectre/v10_0_2/lpmos/models/dio/dnn3.scs
Reading file:  /opt/pdk/xfab/XKIT/xh018/cadence/v10_0/spectre/v10_0_2/lpmos/models/dio/dp3.scs
Reading file:  /opt/pdk/xfab/XKIT/xh018/cadence/v10_0/spectre/v10_0_2/lpmos/models/dio/dnw3.scs
Reading file:  /opt/pdk/xfab/XKIT/xh018/cadence/v10_0/spectre/v10_0_2/lpmos/models/dio/ddnwmv.scs
Reading file:  /opt/pdk/xfab/XKIT/xh018/cadence/v10_0/spectre/v10_0_2/lpmos/models/dio/dpdnwmv.scs
Reading file:  /opt/pdk/xfab/XKIT/xh018/cadence/v10_0/spectre/v10_0_2/lpmos/models/dio/dipdnwmv.scs
Reading file:  /opt/pdk/xfab/XKIT/xh018/cadence/v10_0/spectre/v10_0_2/lpmos/models/dio/ddnw.scs
Reading file:  /opt/pdk/xfab/XKIT/xh018/cadence/v10_0/spectre/v10_0_2/lpmos/models/dio/ddnwa.scs
Reading file:  /opt/pdk/xfab/XKIT/xh018/cadence/v10_0/spectre/v10_0_2/lpmos/models/dio/dpdnw.scs
Reading file:  /opt/pdk/xfab/XKIT/xh018/cadence/v10_0/spectre/v10_0_2/lpmos/models/dio/dipdnw.scs
Reading file:  /opt/pdk/xfab/XKIT/xh018/cadence/v10_0/spectre/v10_0_2/lpmos/models/dio/dnhpw.scs
Reading file:  /opt/pdk/xfab/XKIT/xh018/cadence/v10_0/spectre/v10_0_2/lpmos/models/dio/dnhpwa.scs
Reading file:  /opt/pdk/xfab/XKIT/xh018/cadence/v10_0/spectre/v10_0_2/lpmos/models/dio/dphnw.scs
Reading file:  /opt/pdk/xfab/XKIT/xh018/cadence/v10_0/spectre/v10_0_2/lpmos/models/dio/dphnwa.scs
Reading file:  /opt/pdk/xfab/XKIT/xh018/cadence/v10_0/spectre/v10_0_2/lpmos/models/dio/dhpw.scs
Reading file:  /opt/pdk/xfab/XKIT/xh018/cadence/v10_0/spectre/v10_0_2/lpmos/models/dio/dhnw.scs
Reading file:  /opt/pdk/xfab/XKIT/xh018/cadence/v10_0/spectre/v10_0_2/lpmos/models/dio/dndf.scs
Reading file:  /opt/pdk/xfab/XKIT/xh018/cadence/v10_0/spectre/v10_0_2/lpmos/models/dio/dpdwhn.scs
Reading file:  /opt/pdk/xfab/XKIT/xh018/cadence/v10_0/spectre/v10_0_2/lpmos/models/dio/dwhn.scs
Reading file:  /opt/pdk/xfab/XKIT/xh018/cadence/v10_0/spectre/v10_0_2/lpmos/models/dio/dpwhn.scs
Reading file:  /opt/pdk/xfab/XKIT/xh018/cadence/v10_0/spectre/v10_0_2/lpmos/models/dio/dpndf.scs
Reading file:  /opt/pdk/xfab/XKIT/xh018/cadence/v10_0/spectre/v10_0_2/lpmos/models/dio/dpdddnw.scs
Reading file:  /opt/pdk/xfab/XKIT/xh018/cadence/v10_0/spectre/v10_0_2/lpmos/models/dio/ddpldnw.scs
Reading file:  /opt/pdk/xfab/XKIT/xh018/cadence/v10_0/spectre/v10_0_2/lpmos/models/dio/dn3dpl.scs
Reading file:  /opt/pdk/xfab/XKIT/xh018/cadence/v10_0/spectre/v10_0_2/lpmos/models/dio/dbn.scs
Reading file:  /opt/pdk/xfab/XKIT/xh018/cadence/v10_0/spectre/v10_0_2/lpmos/models/dio/dpol.scs
Reading file:  /opt/pdk/xfab/XKIT/xh018/cadence/v10_0/spectre/v10_0_2/lpmos/models/dio/dnpdd_scr.scs
Reading file:  /opt/pdk/xfab/XKIT/xh018/cadence/v10_0/spectre/v10_0_2/lpmos/models/dio/dpdd_scr.scs
Reading file:  /opt/pdk/xfab/XKIT/xh018/cadence/v10_0/spectre/v10_0_2/lpmos/models/dio/dsb.scs
Reading file:  /opt/pdk/xfab/XKIT/xh018/cadence/v10_0/spectre/v10_0_2/lpmos/models/dio/dsba.scs
Reading file:  /opt/pdk/xfab/XKIT/xh018/cadence/v10_0/spectre/v10_0_2/lpmos/models/dio/dsba_qp1.scs
Reading file:  /opt/pdk/xfab/XKIT/xh018/cadence/v10_0/spectre/v10_0_2/lpmos/models/dio/dnp20.scs
Reading file:  /opt/pdk/xfab/XKIT/xh018/cadence/v10_0/spectre/v10_0_2/lpmos/models/dio/dpp20.scs
Reading file:  /opt/pdk/xfab/XKIT/xh018/cadence/v10_0/spectre/v10_0_2/lpmos/models/dio/dn3sci.scs
Reading file:  /opt/pdk/xfab/XKIT/xh018/cadence/v10_0/spectre/v10_0_2/lpmos/models/dio/dscidnwmv.scs
Reading file:  /opt/pdk/xfab/XKIT/xh018/cadence/v10_0/spectre/v10_0_2/lpmos/mos.scs
Reading file:  /opt/pdk/xfab/XKIT/xh018/cadence/v10_0/spectre/v10_0_2/lpmos/models/mos/tm_mos.scs
Reading file:  /opt/pdk/xfab/XKIT/xh018/cadence/v10_0/spectre/v10_0_2/lpmos/models/mos/ne.scs
Reading file:  /opt/pdk/xfab/XKIT/xh018/cadence/v10_0/spectre/v10_0_2/lpmos/models/mos/nei.scs
Reading file:  /opt/pdk/xfab/XKIT/xh018/cadence/v10_0/spectre/v10_0_2/lpmos/models/mos/nei_6.scs
Reading file:  /opt/pdk/xfab/XKIT/xh018/cadence/v10_0/spectre/v10_0_2/lpmos/models/mos/nei_m_6.scs
Reading file:  /opt/pdk/xfab/XKIT/xh018/cadence/v10_0/spectre/v10_0_2/lpmos/models/mos/nei_a_6.scs
Reading file:  /opt/pdk/xfab/XKIT/xh018/cadence/v10_0/spectre/v10_0_2/lpmos/models/mos/pe.scs
Reading file:  /opt/pdk/xfab/XKIT/xh018/cadence/v10_0/spectre/v10_0_2/lpmos/models/mos/pe_5.scs
Reading file:  /opt/pdk/xfab/XKIT/xh018/cadence/v10_0/spectre/v10_0_2/lpmos/models/mos/pei.scs
Reading file:  /opt/pdk/xfab/XKIT/xh018/cadence/v10_0/spectre/v10_0_2/lpmos/models/mos/pei_5.scs
Reading file:  /opt/pdk/xfab/XKIT/xh018/cadence/v10_0/spectre/v10_0_2/lpmos/models/mos/pei_m_5.scs
Reading file:  /opt/pdk/xfab/XKIT/xh018/cadence/v10_0/spectre/v10_0_2/lpmos/models/mos/pei_a_5.scs
Reading file:  /opt/pdk/xfab/XKIT/xh018/cadence/v10_0/spectre/v10_0_2/lpmos/models/mos/nel.scs
Reading file:  /opt/pdk/xfab/XKIT/xh018/cadence/v10_0/spectre/v10_0_2/lpmos/models/mos/neli.scs
Reading file:  /opt/pdk/xfab/XKIT/xh018/cadence/v10_0/spectre/v10_0_2/lpmos/models/mos/neli_6.scs
Reading file:  /opt/pdk/xfab/XKIT/xh018/cadence/v10_0/spectre/v10_0_2/lpmos/models/mos/neli_m_6.scs
Reading file:  /opt/pdk/xfab/XKIT/xh018/cadence/v10_0/spectre/v10_0_2/lpmos/models/mos/pel.scs
Reading file:  /opt/pdk/xfab/XKIT/xh018/cadence/v10_0/spectre/v10_0_2/lpmos/models/mos/pel_5.scs
Reading file:  /opt/pdk/xfab/XKIT/xh018/cadence/v10_0/spectre/v10_0_2/lpmos/models/mos/peli.scs
Reading file:  /opt/pdk/xfab/XKIT/xh018/cadence/v10_0/spectre/v10_0_2/lpmos/models/mos/peli_5.scs
Reading file:  /opt/pdk/xfab/XKIT/xh018/cadence/v10_0/spectre/v10_0_2/lpmos/models/mos/peli_m_5.scs
Reading file:  /opt/pdk/xfab/XKIT/xh018/cadence/v10_0/spectre/v10_0_2/lpmos/models/mos/nn3.scs
Reading file:  /opt/pdk/xfab/XKIT/xh018/cadence/v10_0/spectre/v10_0_2/lpmos/models/mos/ne3.scs
Reading file:  /opt/pdk/xfab/XKIT/xh018/cadence/v10_0/spectre/v10_0_2/lpmos/models/mos/ne3i.scs
Reading file:  /opt/pdk/xfab/XKIT/xh018/cadence/v10_0/spectre/v10_0_2/lpmos/models/mos/ne3i_6.scs
Reading file:  /opt/pdk/xfab/XKIT/xh018/cadence/v10_0/spectre/v10_0_2/lpmos/models/mos/ne3i_m_6.scs
Reading file:  /opt/pdk/xfab/XKIT/xh018/cadence/v10_0/spectre/v10_0_2/lpmos/models/mos/ne3i_a_6.scs
Reading file:  /opt/pdk/xfab/XKIT/xh018/cadence/v10_0/spectre/v10_0_2/lpmos/models/mos/pe3.scs
Reading file:  /opt/pdk/xfab/XKIT/xh018/cadence/v10_0/spectre/v10_0_2/lpmos/models/mos/pe3_5.scs
Reading file:  /opt/pdk/xfab/XKIT/xh018/cadence/v10_0/spectre/v10_0_2/lpmos/models/mos/pe3i.scs
Reading file:  /opt/pdk/xfab/XKIT/xh018/cadence/v10_0/spectre/v10_0_2/lpmos/models/mos/pe3i_5.scs
Reading file:  /opt/pdk/xfab/XKIT/xh018/cadence/v10_0/spectre/v10_0_2/lpmos/models/mos/pe3i_m_5.scs
Reading file:  /opt/pdk/xfab/XKIT/xh018/cadence/v10_0/spectre/v10_0_2/lpmos/models/mos/pe3i_a_5.scs
Reading file:  /opt/pdk/xfab/XKIT/xh018/cadence/v10_0/spectre/v10_0_2/lpmos/models/mos/pe3ln.scs
Reading file:  /opt/pdk/xfab/XKIT/xh018/cadence/v10_0/spectre/v10_0_2/lpmos/models/mos/pe3ln_5.scs
Reading file:  /opt/pdk/xfab/XKIT/xh018/cadence/v10_0/spectre/v10_0_2/lpmos/models/mos/pe3lni.scs
Reading file:  /opt/pdk/xfab/XKIT/xh018/cadence/v10_0/spectre/v10_0_2/lpmos/models/mos/pe3lni_5.scs
Reading file:  /opt/pdk/xfab/XKIT/xh018/cadence/v10_0/spectre/v10_0_2/lpmos/models/mos/pe3lni_m_5.scs
Reading file:  /opt/pdk/xfab/XKIT/xh018/cadence/v10_0/spectre/v10_0_2/lpmos/models/mos/nd3.scs
Reading file:  /opt/pdk/xfab/XKIT/xh018/cadence/v10_0/spectre/v10_0_2/lpmos/models/mos/nd3_mos1.scs
Reading file:  /opt/pdk/xfab/XKIT/xh018/cadence/v10_0/spectre/v10_0_2/lpmos/models/mos/nd3_mos2.scs
Reading file:  /opt/pdk/xfab/XKIT/xh018/cadence/v10_0/spectre/v10_0_2/lpmos/models/mos/nd3i.scs
Reading file:  /opt/pdk/xfab/XKIT/xh018/cadence/v10_0/spectre/v10_0_2/lpmos/models/mos/nd3i_mos1.scs
Reading file:  /opt/pdk/xfab/XKIT/xh018/cadence/v10_0/spectre/v10_0_2/lpmos/models/mos/nd3i_mos2.scs
Reading file:  /opt/pdk/xfab/XKIT/xh018/cadence/v10_0/spectre/v10_0_2/lpmos/models/mos/nd3i_6.scs
Reading file:  /opt/pdk/xfab/XKIT/xh018/cadence/v10_0/spectre/v10_0_2/lpmos/models/mos/nd3i_m_6.scs
Reading file:  /opt/pdk/xfab/XKIT/xh018/cadence/v10_0/spectre/v10_0_2/lpmos/models/mos/nelna.scs
Reading file:  /opt/pdk/xfab/XKIT/xh018/cadence/v10_0/spectre/v10_0_2/lpmos/models/mos/nelnai.scs
Reading file:  /opt/pdk/xfab/XKIT/xh018/cadence/v10_0/spectre/v10_0_2/lpmos/models/mos/nelnai_6.scs
Reading file:  /opt/pdk/xfab/XKIT/xh018/cadence/v10_0/spectre/v10_0_2/lpmos/models/mos/nelnai_m_6.scs
Reading file:  /opt/pdk/xfab/XKIT/xh018/cadence/v10_0/spectre/v10_0_2/lpmos/models/mos/ne3lna.scs
Reading file:  /opt/pdk/xfab/XKIT/xh018/cadence/v10_0/spectre/v10_0_2/lpmos/models/mos/ne3lnai.scs
Reading file:  /opt/pdk/xfab/XKIT/xh018/cadence/v10_0/spectre/v10_0_2/lpmos/models/mos/ne3lnai_6.scs
Reading file:  /opt/pdk/xfab/XKIT/xh018/cadence/v10_0/spectre/v10_0_2/lpmos/models/mos/ne3lnai_m_6.scs
Reading file:  /opt/pdk/xfab/XKIT/xh018/cadence/v10_0/spectre/v10_0_2/lpmos/models/mos/pe3lna.scs
Reading file:  /opt/pdk/xfab/XKIT/xh018/cadence/v10_0/spectre/v10_0_2/lpmos/models/mos/pe3lna_5.scs
Reading file:  /opt/pdk/xfab/XKIT/xh018/cadence/v10_0/spectre/v10_0_2/lpmos/models/mos/pe3lnai.scs
Reading file:  /opt/pdk/xfab/XKIT/xh018/cadence/v10_0/spectre/v10_0_2/lpmos/models/mos/pe3lnai_5.scs
Reading file:  /opt/pdk/xfab/XKIT/xh018/cadence/v10_0/spectre/v10_0_2/lpmos/models/mos/pe3lnai_m_5.scs
Reading file:  /opt/pdk/xfab/XKIT/xh018/cadence/v10_0/spectre/v10_0_2/lpmos/models/mos/nmma.scs
Reading file:  /opt/pdk/xfab/XKIT/xh018/cadence/v10_0/spectre/v10_0_2/lpmos/models/mos/jf_nmma.scs
Reading file:  /opt/pdk/xfab/XKIT/xh018/cadence/v10_0/spectre/v10_0_2/lpmos/models/mos/nmma_bjt.scs
Reading file:  /opt/pdk/xfab/XKIT/xh018/cadence/v10_0/spectre/v10_0_2/lpmos/models/mos/pmma.scs
Reading file:  /opt/pdk/xfab/XKIT/xh018/cadence/v10_0/spectre/v10_0_2/lpmos/models/mos/jf_pmma.scs
Reading file:  /opt/pdk/xfab/XKIT/xh018/cadence/v10_0/spectre/v10_0_2/lpmos/models/mos/pmma_bjt.scs
Reading file:  /opt/pdk/xfab/XKIT/xh018/cadence/v10_0/spectre/v10_0_2/lpmos/models/mos/nedi.scs
Reading file:  /opt/pdk/xfab/XKIT/xh018/cadence/v10_0/spectre/v10_0_2/lpmos/models/mos/nedi_bjt.scs
Reading file:  /opt/pdk/xfab/XKIT/xh018/cadence/v10_0/spectre/v10_0_2/lpmos/models/mos/nedia.scs
Reading file:  /opt/pdk/xfab/XKIT/xh018/cadence/v10_0/spectre/v10_0_2/lpmos/models/mos/nedia_bjt.scs
Reading file:  /opt/pdk/xfab/XKIT/xh018/cadence/v10_0/spectre/v10_0_2/lpmos/models/mos/ped2.scs
Reading file:  /opt/pdk/xfab/XKIT/xh018/cadence/v10_0/spectre/v10_0_2/lpmos/models/mos/ped2_bjt.scs
Reading file:  /opt/pdk/xfab/XKIT/xh018/cadence/v10_0/spectre/v10_0_2/lpmos/models/mos/ped.scs
Reading file:  /opt/pdk/xfab/XKIT/xh018/cadence/v10_0/spectre/v10_0_2/lpmos/models/mos/ped_bjt.scs
Reading file:  /opt/pdk/xfab/XKIT/xh018/cadence/v10_0/spectre/v10_0_2/lpmos/models/mos/nhv.scs
Reading file:  /opt/pdk/xfab/XKIT/xh018/cadence/v10_0/spectre/v10_0_2/lpmos/models/mos/nhv_mos2.scs
Reading file:  /opt/pdk/xfab/XKIT/xh018/cadence/v10_0/spectre/v10_0_2/lpmos/models/mos/nhv_bjt.scs
Reading file:  /opt/pdk/xfab/XKIT/xh018/cadence/v10_0/spectre/v10_0_2/lpmos/models/mos/nhhv.scs
Reading file:  /opt/pdk/xfab/XKIT/xh018/cadence/v10_0/spectre/v10_0_2/lpmos/models/mos/nhhv_mos2.scs
Reading file:  /opt/pdk/xfab/XKIT/xh018/cadence/v10_0/spectre/v10_0_2/lpmos/models/mos/nhhv_bjt.scs
Reading file:  /opt/pdk/xfab/XKIT/xh018/cadence/v10_0/spectre/v10_0_2/lpmos/models/mos/nmmc.scs
Reading file:  /opt/pdk/xfab/XKIT/xh018/cadence/v10_0/spectre/v10_0_2/lpmos/models/mos/nmmc_mos2.scs
Reading file:  /opt/pdk/xfab/XKIT/xh018/cadence/v10_0/spectre/v10_0_2/lpmos/models/mos/nmmc_bjt.scs
Reading file:  /opt/pdk/xfab/XKIT/xh018/cadence/v10_0/spectre/v10_0_2/lpmos/models/mos/nmmd.scs
Reading file:  /opt/pdk/xfab/XKIT/xh018/cadence/v10_0/spectre/v10_0_2/lpmos/models/mos/nmmd_mos2.scs
Reading file:  /opt/pdk/xfab/XKIT/xh018/cadence/v10_0/spectre/v10_0_2/lpmos/models/mos/nmmd_bjt.scs
Reading file:  /opt/pdk/xfab/XKIT/xh018/cadence/v10_0/spectre/v10_0_2/lpmos/models/mos/nmc.scs
Reading file:  /opt/pdk/xfab/XKIT/xh018/cadence/v10_0/spectre/v10_0_2/lpmos/models/mos/nmc_mos2.scs
Reading file:  /opt/pdk/xfab/XKIT/xh018/cadence/v10_0/spectre/v10_0_2/lpmos/models/mos/nmc_bjt.scs
Reading file:  /opt/pdk/xfab/XKIT/xh018/cadence/v10_0/spectre/v10_0_2/lpmos/models/mos/nma.scs
Reading file:  /opt/pdk/xfab/XKIT/xh018/cadence/v10_0/spectre/v10_0_2/lpmos/models/mos/nma_bjt.scs
Reading file:  /opt/pdk/xfab/XKIT/xh018/cadence/v10_0/spectre/v10_0_2/lpmos/models/mos/phv.scs
Reading file:  /opt/pdk/xfab/XKIT/xh018/cadence/v10_0/spectre/v10_0_2/lpmos/models/mos/phv_mos2.scs
Reading file:  /opt/pdk/xfab/XKIT/xh018/cadence/v10_0/spectre/v10_0_2/lpmos/models/mos/phv_bjt.scs
Reading file:  /opt/pdk/xfab/XKIT/xh018/cadence/v10_0/spectre/v10_0_2/lpmos/models/mos/phhv.scs
Reading file:  /opt/pdk/xfab/XKIT/xh018/cadence/v10_0/spectre/v10_0_2/lpmos/models/mos/phhv_mos2.scs
Reading file:  /opt/pdk/xfab/XKIT/xh018/cadence/v10_0/spectre/v10_0_2/lpmos/models/mos/phhv_bjt.scs
Reading file:  /opt/pdk/xfab/XKIT/xh018/cadence/v10_0/spectre/v10_0_2/lpmos/models/mos/pmc.scs
Reading file:  /opt/pdk/xfab/XKIT/xh018/cadence/v10_0/spectre/v10_0_2/lpmos/models/mos/pmc_mos2.scs
Reading file:  /opt/pdk/xfab/XKIT/xh018/cadence/v10_0/spectre/v10_0_2/lpmos/models/mos/pmc_bjt.scs
Reading file:  /opt/pdk/xfab/XKIT/xh018/cadence/v10_0/spectre/v10_0_2/lpmos/models/mos/pmmc.scs
Reading file:  /opt/pdk/xfab/XKIT/xh018/cadence/v10_0/spectre/v10_0_2/lpmos/models/mos/pmmc_mos2.scs
Reading file:  /opt/pdk/xfab/XKIT/xh018/cadence/v10_0/spectre/v10_0_2/lpmos/models/mos/pmmc_bjt.scs
Reading file:  /opt/pdk/xfab/XKIT/xh018/cadence/v10_0/spectre/v10_0_2/lpmos/models/mos/pma.scs
Reading file:  /opt/pdk/xfab/XKIT/xh018/cadence/v10_0/spectre/v10_0_2/lpmos/models/mos/pma_bjt.scs
Reading file:  /opt/pdk/xfab/XKIT/xh018/cadence/v10_0/spectre/v10_0_2/lpmos/models/mos/pmb.scs
Reading file:  /opt/pdk/xfab/XKIT/xh018/cadence/v10_0/spectre/v10_0_2/lpmos/models/mos/nesvt.scs
Reading file:  /opt/pdk/xfab/XKIT/xh018/cadence/v10_0/spectre/v10_0_2/lpmos/models/mos/nesvti.scs
Reading file:  /opt/pdk/xfab/XKIT/xh018/cadence/v10_0/spectre/v10_0_2/lpmos/models/mos/nesvti_6.scs
Reading file:  /opt/pdk/xfab/XKIT/xh018/cadence/v10_0/spectre/v10_0_2/lpmos/models/mos/nesvti_m_6.scs
Reading file:  /opt/pdk/xfab/XKIT/xh018/cadence/v10_0/spectre/v10_0_2/lpmos/models/mos/pesvt.scs
Reading file:  /opt/pdk/xfab/XKIT/xh018/cadence/v10_0/spectre/v10_0_2/lpmos/models/mos/pesvt_5.scs
Reading file:  /opt/pdk/xfab/XKIT/xh018/cadence/v10_0/spectre/v10_0_2/lpmos/models/mos/pesvti.scs
Reading file:  /opt/pdk/xfab/XKIT/xh018/cadence/v10_0/spectre/v10_0_2/lpmos/models/mos/pesvti_5.scs
Reading file:  /opt/pdk/xfab/XKIT/xh018/cadence/v10_0/spectre/v10_0_2/lpmos/models/mos/pesvti_m_5.scs
Reading file:  /opt/pdk/xfab/XKIT/xh018/cadence/v10_0/spectre/v10_0_2/lpmos/models/mos/nhvd.scs
Reading file:  /opt/pdk/xfab/XKIT/xh018/cadence/v10_0/spectre/v10_0_2/lpmos/models/mos/nhvd_bjt.scs
Reading file:  /opt/pdk/xfab/XKIT/xh018/cadence/v10_0/spectre/v10_0_2/lpmos/models/mos/nhhvd.scs
Reading file:  /opt/pdk/xfab/XKIT/xh018/cadence/v10_0/spectre/v10_0_2/lpmos/models/mos/nhhvd_bjt.scs
Reading file:  /opt/pdk/xfab/XKIT/xh018/cadence/v10_0/spectre/v10_0_2/lpmos/photo.scs
Reading file:  /opt/pdk/xfab/XKIT/xh018/cadence/v10_0/spectre/v10_0_2/lpmos/models/photo/tm_pho.scs
Reading file:  /opt/pdk/xfab/XKIT/xh018/cadence/v10_0/spectre/v10_0_2/lpmos/models/photo/dphoa.scs
Reading file:  /opt/pdk/xfab/XKIT/xh018/cadence/v10_0/spectre/v10_0_2/lpmos/models/photo/dpho.va
Reading link:  /opt/tools/cadence/installs/SPECTRE241/tools.lnx86/spectre/etc/ahdl/constants.h
Reading file:  /opt/tools/cadence/installs/SPECTRE241/tools.lnx86/spectre/etc/ahdl/constants.vams
Reading link:  /opt/tools/cadence/installs/SPECTRE241/tools.lnx86/spectre/etc/ahdl/discipline.h
Reading file:  /opt/tools/cadence/installs/SPECTRE241/tools.lnx86/spectre/etc/ahdl/disciplines.vams
Reading file:  /opt/pdk/xfab/XKIT/xh018/cadence/v10_0/spectre/v10_0_2/lpmos/models/photo/dphob.scs
Reading file:  /opt/pdk/xfab/XKIT/xh018/cadence/v10_0/spectre/v10_0_2/lpmos/models/photo/dphoc.scs
Reading file:  /opt/pdk/xfab/XKIT/xh018/cadence/v10_0/spectre/v10_0_2/lpmos/models/photo/iphoto_uv.va
Reading file:  /opt/pdk/xfab/XKIT/xh018/cadence/v10_0/spectre/v10_0_2/lpmos/models/photo/dphoc_cat.scs
Reading file:  /opt/pdk/xfab/XKIT/xh018/cadence/v10_0/spectre/v10_0_2/lpmos/models/photo/dphoc0.scs
Reading file:  /opt/pdk/xfab/XKIT/xh018/cadence/v10_0/spectre/v10_0_2/lpmos/models/photo/dphoc0_cat.scs
Reading file:  /opt/pdk/xfab/XKIT/xh018/cadence/v10_0/spectre/v10_0_2/lpmos/models/photo/dphocfp.scs
Reading file:  /opt/pdk/xfab/XKIT/xh018/cadence/v10_0/spectre/v10_0_2/lpmos/models/photo/dphocfp_cat.scs
Reading file:  /opt/pdk/xfab/XKIT/xh018/cadence/v10_0/spectre/v10_0_2/lpmos/models/photo/dphod.scs
Reading file:  /opt/pdk/xfab/XKIT/xh018/cadence/v10_0/spectre/v10_0_2/lpmos/models/photo/dphod_an1.scs
Reading file:  /opt/pdk/xfab/XKIT/xh018/cadence/v10_0/spectre/v10_0_2/lpmos/models/photo/dphod_an2.scs
Reading file:  /opt/pdk/xfab/XKIT/xh018/cadence/v10_0/spectre/v10_0_2/lpmos/models/photo/dphod0.scs
Reading file:  /opt/pdk/xfab/XKIT/xh018/cadence/v10_0/spectre/v10_0_2/lpmos/models/photo/dphod0_an1.scs
Reading file:  /opt/pdk/xfab/XKIT/xh018/cadence/v10_0/spectre/v10_0_2/lpmos/models/photo/dphod0_an2.scs
Reading file:  /opt/pdk/xfab/XKIT/xh018/cadence/v10_0/spectre/v10_0_2/lpmos/models/photo/dphodfp.scs
Reading file:  /opt/pdk/xfab/XKIT/xh018/cadence/v10_0/spectre/v10_0_2/lpmos/models/photo/dphodfp_an1.scs
Reading file:  /opt/pdk/xfab/XKIT/xh018/cadence/v10_0/spectre/v10_0_2/lpmos/models/photo/dphodfp_an2.scs
Reading file:  /opt/pdk/xfab/XKIT/xh018/cadence/v10_0/spectre/v10_0_2/lpmos/models/photo/dspada0.scs
Reading file:  /opt/pdk/xfab/XKIT/xh018/cadence/v10_0/spectre/v10_0_2/lpmos/models/photo/ispad.va
Reading file:  /opt/pdk/xfab/XKIT/xh018/cadence/v10_0/spectre/v10_0_2/lpmos/models/photo/dapb.scs
Reading file:  /opt/pdk/xfab/XKIT/xh018/cadence/v10_0/spectre/v10_0_2/lpmos/models/photo/iphoto_apd_trig.va
Reading file:  /opt/pdk/xfab/XKIT/xh018/cadence/v10_0/spectre/v10_0_2/lpmos/models/photo/dapb_jun.scs
Reading file:  /opt/pdk/xfab/XKIT/xh018/cadence/v10_0/spectre/v10_0_2/lpmos/models/photo/dapb_trig.scs
Reading file:  /opt/pdk/xfab/XKIT/xh018/cadence/v10_0/spectre/v10_0_2/lpmos/models/photo/dapb0.scs
Reading file:  /opt/pdk/xfab/XKIT/xh018/cadence/v10_0/spectre/v10_0_2/lpmos/models/photo/dapb0_jun.scs
Reading file:  /opt/pdk/xfab/XKIT/xh018/cadence/v10_0/spectre/v10_0_2/lpmos/models/photo/dspb.scs
Reading file:  /opt/pdk/xfab/XKIT/xh018/cadence/v10_0/spectre/v10_0_2/lpmos/models/photo/ispad_trig.va
Reading file:  /opt/pdk/xfab/XKIT/xh018/cadence/v10_0/spectre/v10_0_2/lpmos/models/photo/dspb_jun.scs
Reading file:  /opt/pdk/xfab/XKIT/xh018/cadence/v10_0/spectre/v10_0_2/lpmos/models/photo/dspb_trig.scs
Reading file:  /opt/pdk/xfab/XKIT/xh018/cadence/v10_0/spectre/v10_0_2/lpmos/models/photo/dspb0.scs
Reading file:  /opt/pdk/xfab/XKIT/xh018/cadence/v10_0/spectre/v10_0_2/lpmos/models/photo/dspb0_jun.scs
Reading file:  /opt/pdk/xfab/XKIT/xh018/cadence/v10_0/spectre/v10_0_2/lpmos/models/photo/dspbfep.scs
Reading file:  /opt/pdk/xfab/XKIT/xh018/cadence/v10_0/spectre/v10_0_2/lpmos/models/photo/dapda.scs
Reading file:  /opt/pdk/xfab/XKIT/xh018/cadence/v10_0/spectre/v10_0_2/lpmos/models/photo/iphoto_apd.va
Reading file:  /opt/pdk/xfab/XKIT/xh018/cadence/v10_0/spectre/v10_0_2/lpmos/models/photo/dapda_cat.scs
Reading file:  /opt/pdk/xfab/XKIT/xh018/cadence/v10_0/spectre/v10_0_2/lpmos/models/photo/dapda0.scs
Reading file:  /opt/pdk/xfab/XKIT/xh018/cadence/v10_0/spectre/v10_0_2/lpmos/models/photo/dspada.scs
Reading file:  /opt/pdk/xfab/XKIT/xh018/cadence/v10_0/spectre/v10_0_2/lpmos/models/photo/dspada_cat.scs
Reading file:  /opt/pdk/xfab/XKIT/xh018/cadence/v10_0/spectre/v10_0_2/lpmos/res.scs
Reading file:  /opt/pdk/xfab/XKIT/xh018/cadence/v10_0/spectre/v10_0_2/lpmos/models/res/tm_res.scs
Reading file:  /opt/pdk/xfab/XKIT/xh018/cadence/v10_0/spectre/v10_0_2/lpmos/models/res/rdn.scs
Reading file:  /opt/pdk/xfab/XKIT/xh018/cadence/v10_0/spectre/v10_0_2/lpmos/models/res/rdn_esd.scs
Reading file:  /opt/pdk/xfab/XKIT/xh018/cadence/v10_0/spectre/v10_0_2/lpmos/models/res/rdp.scs
Reading file:  /opt/pdk/xfab/XKIT/xh018/cadence/v10_0/spectre/v10_0_2/lpmos/models/res/rdp_io.scs
Reading file:  /opt/pdk/xfab/XKIT/xh018/cadence/v10_0/spectre/v10_0_2/lpmos/models/res/rdp_esd.scs
Reading file:  /opt/pdk/xfab/XKIT/xh018/cadence/v10_0/spectre/v10_0_2/lpmos/models/res/rnw.scs
Reading file:  /opt/pdk/xfab/XKIT/xh018/cadence/v10_0/spectre/v10_0_2/lpmos/models/res/rnw_scr.scs
Reading file:  /opt/pdk/xfab/XKIT/xh018/cadence/v10_0/spectre/v10_0_2/lpmos/models/res/rdn3.scs
Reading file:  /opt/pdk/xfab/XKIT/xh018/cadence/v10_0/spectre/v10_0_2/lpmos/models/res/rdp3.scs
Reading file:  /opt/pdk/xfab/XKIT/xh018/cadence/v10_0/spectre/v10_0_2/lpmos/models/res/rnw3.scs
Reading file:  /opt/pdk/xfab/XKIT/xh018/cadence/v10_0/spectre/v10_0_2/lpmos/models/res/rnw3_scr.scs
Reading file:  /opt/pdk/xfab/XKIT/xh018/cadence/v10_0/spectre/v10_0_2/lpmos/models/res/rdnwmv.scs
Reading file:  /opt/pdk/xfab/XKIT/xh018/cadence/v10_0/spectre/v10_0_2/lpmos/models/res/rnp1.scs
Reading file:  /opt/pdk/xfab/XKIT/xh018/cadence/v10_0/spectre/v10_0_2/lpmos/models/res/rnp1_3.scs
Reading file:  /opt/pdk/xfab/XKIT/xh018/cadence/v10_0/spectre/v10_0_2/lpmos/models/res/rpp1.scs
Reading file:  /opt/pdk/xfab/XKIT/xh018/cadence/v10_0/spectre/v10_0_2/lpmos/models/res/rpp1_3.scs
Reading file:  /opt/pdk/xfab/XKIT/xh018/cadence/v10_0/spectre/v10_0_2/lpmos/models/res/rpp1s.scs
Reading file:  /opt/pdk/xfab/XKIT/xh018/cadence/v10_0/spectre/v10_0_2/lpmos/models/res/rpp1s_3.scs
Reading file:  /opt/pdk/xfab/XKIT/xh018/cadence/v10_0/spectre/v10_0_2/lpmos/models/res/rnp1h.scs
Reading file:  /opt/pdk/xfab/XKIT/xh018/cadence/v10_0/spectre/v10_0_2/lpmos/models/res/rnp1h_3.scs
Reading file:  /opt/pdk/xfab/XKIT/xh018/cadence/v10_0/spectre/v10_0_2/lpmos/models/res/rpp1k1.scs
Reading file:  /opt/pdk/xfab/XKIT/xh018/cadence/v10_0/spectre/v10_0_2/lpmos/models/res/rpp1k1_3.scs
Reading file:  /opt/pdk/xfab/XKIT/xh018/cadence/v10_0/spectre/v10_0_2/lpmos/models/res/rctdn.scs
Reading file:  /opt/pdk/xfab/XKIT/xh018/cadence/v10_0/spectre/v10_0_2/lpmos/models/res/rctdp.scs
Reading file:  /opt/pdk/xfab/XKIT/xh018/cadence/v10_0/spectre/v10_0_2/lpmos/models/res/rctp1.scs
Reading file:  /opt/pdk/xfab/XKIT/xh018/cadence/v10_0/spectre/v10_0_2/lpmos/models/res/rsildn.scs
Reading file:  /opt/pdk/xfab/XKIT/xh018/cadence/v10_0/spectre/v10_0_2/lpmos/models/res/rsildp.scs
Reading file:  /opt/pdk/xfab/XKIT/xh018/cadence/v10_0/spectre/v10_0_2/lpmos/models/res/rsilnp1.scs
Reading file:  /opt/pdk/xfab/XKIT/xh018/cadence/v10_0/spectre/v10_0_2/lpmos/models/res/rsilpp1.scs
Reading file:  /opt/pdk/xfab/XKIT/xh018/cadence/v10_0/spectre/v10_0_2/lpmos/models/res/rsbdn.scs
Reading file:  /opt/pdk/xfab/XKIT/xh018/cadence/v10_0/spectre/v10_0_2/lpmos/models/res/rsbdp.scs
Reading file:  /opt/pdk/xfab/XKIT/xh018/cadence/v10_0/spectre/v10_0_2/lpmos/models/res/rsbdn3.scs
Reading file:  /opt/pdk/xfab/XKIT/xh018/cadence/v10_0/spectre/v10_0_2/lpmos/models/res/rsbdp3.scs
Reading file:  /opt/pdk/xfab/XKIT/xh018/cadence/v10_0/spectre/v10_0_2/lpmos/models/res/rsbnp1.scs
Reading file:  /opt/pdk/xfab/XKIT/xh018/cadence/v10_0/spectre/v10_0_2/lpmos/models/res/rsbpp1.scs
Reading file:  /opt/pdk/xfab/XKIT/xh018/cadence/v10_0/spectre/v10_0_2/lpmos/models/res/rsbpp1k1.scs
Reading file:  /opt/pdk/xfab/XKIT/xh018/cadence/v10_0/spectre/v10_0_2/lpmos/models/res/rm1.scs
Reading file:  /opt/pdk/xfab/XKIT/xh018/cadence/v10_0/spectre/v10_0_2/lpmos/models/res/rm2.scs
Reading file:  /opt/pdk/xfab/XKIT/xh018/cadence/v10_0/spectre/v10_0_2/lpmos/models/res/rm3.scs
Reading file:  /opt/pdk/xfab/XKIT/xh018/cadence/v10_0/spectre/v10_0_2/lpmos/models/res/rm4.scs
Reading file:  /opt/pdk/xfab/XKIT/xh018/cadence/v10_0/spectre/v10_0_2/lpmos/models/res/rm5.scs
Reading file:  /opt/pdk/xfab/XKIT/xh018/cadence/v10_0/spectre/v10_0_2/lpmos/models/res/rmtp.scs
Reading file:  /opt/pdk/xfab/XKIT/xh018/cadence/v10_0/spectre/v10_0_2/lpmos/models/res/rmtpl.scs
Reading file:  /opt/pdk/xfab/XKIT/xh018/cadence/v10_0/spectre/v10_0_2/lpmos/models/res/pfuse.scs
Reading file:  /opt/pdk/xfab/XKIT/xh018/cadence/v10_0/spectre/v10_0_2/lpmos/models/res/s_res.scs
Time for NDB Parsing: CPU = 181.336 ms, elapsed = 522.627 ms.
Time accumulated: CPU = 343.438 ms, elapsed = 522.628 ms.
Peak resident memory used = 200 Mbytes.

Time for Elaboration: CPU = 13.027 ms, elapsed = 13.6659 ms.
Time accumulated: CPU = 356.547 ms, elapsed = 536.437 ms.
Peak resident memory used = 209 Mbytes.


Notice from spectre during hierarchy flattening.
    The value 'psf' specified for the 'checklimitdest' option will no longer be supported in future releases. Use 'spectre -h' to see other recommended values for the 'checklimitdest' option.


Time for EDB Visiting: CPU = 610 us, elapsed = 856.161 us.
Time accumulated: CPU = 357.249 ms, elapsed = 537.465 ms.
Peak resident memory used = 210 Mbytes.


Notice from spectre during initial setup.
    Multithreading is disabled due to the size of the design being too small.


Netlist title:
        // Point Netlist Generated on: Nov  9 15:20:53 2025


Global user options:
         psfversion = 1.4.0
            vabstol = 1e-06
            iabstol = 1e-12
               temp = 27
               gmin = 1e-12
             rforce = 1
           maxnotes = 5
           maxwarns = 5
             digits = 5
               cols = 80
             pivrel = 0.001
           sensfile = ../psf/sens.output
     checklimitdest = psf
               save = allpub
             reltol = 0.001
               tnom = 27
             scalem = 1
              scale = 1

Scoped user options:

Circuit inventory:
              nodes 5
          capacitor 5     
             iprobe 1     
            isource 1     
           resistor 4     
               vccs 1     
            vsource 1     

Analysis and control statement inventory:
               info 6     
                 pz 1     

Output statements:
             .probe 0     
           .measure 0     
               save 0     


Notice from spectre during initial setup.
    APS enabled.

Time for parsing: CPU = 2.269 ms, elapsed = 15.928 ms.
Time accumulated: CPU = 359.587 ms, elapsed = 553.527 ms.
Peak resident memory used = 214 Mbytes.

~~~~~~~~~~~~~~~~~~~~~~
Pre-Simulation Summary
~~~~~~~~~~~~~~~~~~~~~~
   -   (APS) Multi-threading. The recommended number of threads is 1, consider adding +mt=1 on command line.
~~~~~~~~~~~~~~~~~~~~~~

**************************************
PZ Analysis `pz': gm1 = (0 -> 227e-06)
**************************************
Convergence achieved in 2 iterations.
DC simulation time: CPU = 342 us, elapsed = 584.126 us.

Opening the PSF file ../psf/pz.pz ...

0              0.00% 
Convergence achieved in 2 iterations.
DC simulation time: CPU = 88 us, elapsed = 111.103 us.
                      Poles (Hz)

           Real                       Imaginary                 Qfactor

   1   -3.96970e+07                  0.00000e+00              5.00000e-01 
   2   -1.30979e+09                  0.00000e+00              5.00000e-01 

                      Zeros (Hz)
                      at I(IPRB0:in)/V0

           Real                       Imaginary                 Qfactor

   1    0.00000e+00                  0.00000e+00              nan         
   2   -9.61436e+06                  0.00000e+00              5.00000e-01 

Constant factor =  9.00901e-04

DC gain =  2.65129e-14


4.54e-06       2.00% 
Convergence achieved in 2 iterations.
DC simulation time: CPU = 109 us, elapsed = 123.024 us.
                      Poles (Hz)

           Real                       Imaginary                 Qfactor

   1   -4.15432e+07                  0.00000e+00              5.00000e-01 
   2   -1.30838e+09                  0.00000e+00              5.00000e-01 

                      Zeros (Hz)
                      at I(IPRB0:in)/V0

           Real                       Imaginary                 Qfactor

   1    1.19210e+07                  0.00000e+00              -5.00000e-01
   2   -2.19698e+07                  0.00000e+00              5.00000e-01 

Constant factor =  9.00901e-04

DC gain =  4.34092e-06

.
9.08e-06       4.00% 
Convergence achieved in 2 iterations.
DC simulation time: CPU = 75 us, elapsed = 97.99 us.
                      Poles (Hz)

           Real                       Imaginary                 Qfactor

   1   -4.33935e+07                  0.00000e+00              5.00000e-01 
   2   -1.30696e+09                  0.00000e+00              5.00000e-01 

                      Zeros (Hz)
                      at I(IPRB0:in)/V0

           Real                       Imaginary                 Qfactor

   1    1.82377e+07                  0.00000e+00              -5.00000e-01
   2   -2.87209e+07                  0.00000e+00              5.00000e-01 

Constant factor =  9.00901e-04

DC gain =  8.32065e-06

...
13.62e-06      6.00% 
Convergence achieved in 2 iterations.
DC simulation time: CPU = 67 us, elapsed = 90.1222 us.
                      Poles (Hz)

           Real                       Imaginary                 Qfactor

   1   -4.52480e+07                  0.00000e+00              5.00000e-01 
   2   -1.30554e+09                  0.00000e+00              5.00000e-01 

                      Zeros (Hz)
                      at I(IPRB0:in)/V0

           Real                       Imaginary                 Qfactor

   1    2.30982e+07                  0.00000e+00              -5.00000e-01
   2   -3.40159e+07                  0.00000e+00              5.00000e-01 

Constant factor =  9.00901e-04

DC gain =  1.19825e-05

....
18.16e-06      8.00% 
Convergence achieved in 2 iterations.
DC simulation time: CPU = 57 us, elapsed = 92.9832 us.
                      Poles (Hz)

           Real                       Imaginary                 Qfactor

   1   -4.71066e+07                  0.00000e+00              5.00000e-01 
   2   -1.30412e+09                  0.00000e+00              5.00000e-01 

                      Zeros (Hz)
                      at I(IPRB0:in)/V0

           Real                       Imaginary                 Qfactor

   1    2.71847e+07                  0.00000e+00              -5.00000e-01
   2   -3.85367e+07                  0.00000e+00              5.00000e-01 

Constant factor =  9.00901e-04

DC gain =  1.53630e-05

......
22.7e-06      10.00% 
Convergence achieved in 2 iterations.
DC simulation time: CPU = 79 us, elapsed = 101.089 us.
                      Poles (Hz)

           Real                       Imaginary                 Qfactor

   1   -4.89695e+07                  0.00000e+00              5.00000e-01 
   2   -1.30269e+09                  0.00000e+00              5.00000e-01 

                      Zeros (Hz)
                      at I(IPRB0:in)/V0

           Real                       Imaginary                 Qfactor

   1    3.07706e+07                  0.00000e+00              -5.00000e-01
   2   -4.25572e+07                  0.00000e+00              5.00000e-01 

Constant factor =  9.00901e-04

DC gain =  1.84935e-05

......9
27.24e-06     12.00% 
Convergence achieved in 2 iterations.
DC simulation time: CPU = 69 us, elapsed = 85.1154 us.
                      Poles (Hz)

           Real                       Imaginary                 Qfactor

   1   -5.08366e+07                  0.00000e+00              5.00000e-01 
   2   -1.30126e+09                  0.00000e+00              5.00000e-01 

                      Zeros (Hz)
                      at I(IPRB0:in)/V0

           Real                       Imaginary                 Qfactor

   1    3.39987e+07                  0.00000e+00              -5.00000e-01
   2   -4.62197e+07                  0.00000e+00              5.00000e-01 

Constant factor =  9.00901e-04

DC gain =  2.14006e-05

......9.
31.78e-06     14.00% 
Convergence achieved in 2 iterations.
DC simulation time: CPU = 77 us, elapsed = 93.9369 us.
                      Poles (Hz)

           Real                       Imaginary                 Qfactor

   1   -5.27081e+07                  0.00000e+00              5.00000e-01 
   2   -1.29982e+09                  0.00000e+00              5.00000e-01 

                      Zeros (Hz)
                      at I(IPRB0:in)/V0

           Real                       Imaginary                 Qfactor

   1    3.69546e+07                  0.00000e+00              -5.00000e-01
   2   -4.96100e+07                  0.00000e+00              5.00000e-01 

Constant factor =  9.00901e-04

DC gain =  2.41075e-05

......9...
36.32e-06     16.00% 
Convergence achieved in 2 iterations.
DC simulation time: CPU = 64 us, elapsed = 73.9098 us.
                      Poles (Hz)

           Real                       Imaginary                 Qfactor

   1   -5.45838e+07                  0.00000e+00              5.00000e-01 
   2   -1.29838e+09                  0.00000e+00              5.00000e-01 

                      Zeros (Hz)
                      at I(IPRB0:in)/V0

           Real                       Imaginary                 Qfactor

   1    3.96942e+07                  0.00000e+00              -5.00000e-01
   2   -5.27840e+07                  0.00000e+00              5.00000e-01 

Constant factor =  9.00901e-04

DC gain =  2.66342e-05

......9....
40.86e-06     18.00% 
Convergence achieved in 2 iterations.
DC simulation time: CPU = 71 us, elapsed = 1.60193 ms.
                      Poles (Hz)

           Real                       Imaginary                 Qfactor

   1   -5.64640e+07                  0.00000e+00              5.00000e-01 
   2   -1.29694e+09                  0.00000e+00              5.00000e-01 

                      Zeros (Hz)
                      at I(IPRB0:in)/V0

           Real                       Imaginary                 Qfactor

   1    4.22567e+07                  0.00000e+00              -5.00000e-01
   2   -5.57809e+07                  0.00000e+00              5.00000e-01 

Constant factor =  9.00901e-04

DC gain =  2.89980e-05

......9......
45.4e-06      20.00% 
Convergence achieved in 2 iterations.
DC simulation time: CPU = 68 us, elapsed = 86.0691 us.
                      Poles (Hz)

           Real                       Imaginary                 Qfactor

   1   -5.83485e+07                  0.00000e+00              5.00000e-01 
   2   -1.29549e+09                  0.00000e+00              5.00000e-01 

                      Zeros (Hz)
                      at I(IPRB0:in)/V0

           Real                       Imaginary                 Qfactor

   1    4.46707e+07                  0.00000e+00              -5.00000e-01
   2   -5.86294e+07                  0.00000e+00              5.00000e-01 

Constant factor =  9.00901e-04

DC gain =  3.12143e-05

......9......8
49.94e-06     22.00% 
Convergence achieved in 2 iterations.
DC simulation time: CPU = 79 us, elapsed = 102.997 us.
                      Poles (Hz)

           Real                       Imaginary                 Qfactor

   1   -6.02374e+07                  0.00000e+00              5.00000e-01 
   2   -1.29403e+09                  0.00000e+00              5.00000e-01 

                      Zeros (Hz)
                      at I(IPRB0:in)/V0

           Real                       Imaginary                 Qfactor

   1    4.69580e+07                  0.00000e+00              -5.00000e-01
   2   -6.13511e+07                  0.00000e+00              5.00000e-01 

Constant factor =  9.00901e-04

DC gain =  3.32964e-05

......9......8.
54.48e-06     24.00% 
Convergence achieved in 2 iterations.
DC simulation time: CPU = 151 us, elapsed = 169.992 us.
                      Poles (Hz)

           Real                       Imaginary                 Qfactor

   1   -6.21308e+07                  0.00000e+00              5.00000e-01 
   2   -1.29257e+09                  0.00000e+00              5.00000e-01 

                      Zeros (Hz)
                      at I(IPRB0:in)/V0

           Real                       Imaginary                 Qfactor

   1    4.91352e+07                  0.00000e+00              -5.00000e-01
   2   -6.39628e+07                  0.00000e+00              5.00000e-01 

Constant factor =  9.00901e-04

DC gain =  3.52562e-05

......9......8...
59.02e-06     26.00% 
Convergence achieved in 2 iterations.
DC simulation time: CPU = 127 us, elapsed = 139.952 us.
                      Poles (Hz)

           Real                       Imaginary                 Qfactor

   1   -6.40287e+07                  0.00000e+00              5.00000e-01 
   2   -1.29111e+09                  0.00000e+00              5.00000e-01 

                      Zeros (Hz)
                      at I(IPRB0:in)/V0

           Real                       Imaginary                 Qfactor

   1    5.12159e+07                  0.00000e+00              -5.00000e-01
   2   -6.64779e+07                  0.00000e+00              5.00000e-01 

Constant factor =  9.00901e-04

DC gain =  3.71041e-05

......9......8....
63.56e-06     28.00% 
Convergence achieved in 2 iterations.
DC simulation time: CPU = 99 us, elapsed = 115.156 us.
                      Poles (Hz)

           Real                       Imaginary                 Qfactor

   1   -6.59312e+07                  0.00000e+00              5.00000e-01 
   2   -1.28964e+09                  0.00000e+00              5.00000e-01 

                      Zeros (Hz)
                      at I(IPRB0:in)/V0

           Real                       Imaginary                 Qfactor

   1    5.32110e+07                  0.00000e+00              -5.00000e-01
   2   -6.89074e+07                  0.00000e+00              5.00000e-01 

Constant factor =  9.00901e-04

DC gain =  3.88494e-05

......9......8......
68.1e-06      30.00% 
Convergence achieved in 2 iterations.
DC simulation time: CPU = 78 us, elapsed = 96.0827 us.
                      Poles (Hz)

           Real                       Imaginary                 Qfactor

   1   -6.78382e+07                  0.00000e+00              5.00000e-01 
   2   -1.28817e+09                  0.00000e+00              5.00000e-01 

                      Zeros (Hz)
                      at I(IPRB0:in)/V0

           Real                       Imaginary                 Qfactor

   1    5.51294e+07                  0.00000e+00              -5.00000e-01
   2   -7.12602e+07                  0.00000e+00              5.00000e-01 

Constant factor =  9.00901e-04

DC gain =  4.05005e-05

......9......8......7
72.64e-06     32.00% 
Convergence achieved in 2 iterations.
DC simulation time: CPU = 93 us, elapsed = 1.33395 ms.
                      Poles (Hz)

           Real                       Imaginary                 Qfactor

   1   -6.97498e+07                  0.00000e+00              5.00000e-01 
   2   -1.28669e+09                  0.00000e+00              5.00000e-01 

                      Zeros (Hz)
                      at I(IPRB0:in)/V0

           Real                       Imaginary                 Qfactor

   1    5.69786e+07                  0.00000e+00              -5.00000e-01
   2   -7.35439e+07                  0.00000e+00              5.00000e-01 

Constant factor =  9.00901e-04

DC gain =  4.20648e-05

......9......8......7.
77.18e-06     34.00% 
Convergence achieved in 2 iterations.
DC simulation time: CPU = 90 us, elapsed = 2.04992 ms.
                      Poles (Hz)

           Real                       Imaginary                 Qfactor

   1   -7.16661e+07                  0.00000e+00              5.00000e-01 
   2   -1.28521e+09                  0.00000e+00              5.00000e-01 

                      Zeros (Hz)
                      at I(IPRB0:in)/V0

           Real                       Imaginary                 Qfactor

   1    5.87652e+07                  0.00000e+00              -5.00000e-01
   2   -7.57649e+07                  0.00000e+00              5.00000e-01 

Constant factor =  9.00901e-04

DC gain =  4.35489e-05

......9......8......7...
81.72e-06     36.00% 
Convergence achieved in 2 iterations.
DC simulation time: CPU = 77 us, elapsed = 87.0228 us.
                      Poles (Hz)

           Real                       Imaginary                 Qfactor

   1   -7.35871e+07                  0.00000e+00              5.00000e-01 
   2   -1.28372e+09                  0.00000e+00              5.00000e-01 

                      Zeros (Hz)
                      at I(IPRB0:in)/V0

           Real                       Imaginary                 Qfactor

   1    6.04944e+07                  0.00000e+00              -5.00000e-01
   2   -7.79285e+07                  0.00000e+00              5.00000e-01 

Constant factor =  9.00901e-04

DC gain =  4.49589e-05

......9......8......7....
86.26e-06     38.00% 
Convergence achieved in 2 iterations.
DC simulation time: CPU = 83 us, elapsed = 1.79505 ms.
                      Poles (Hz)

           Real                       Imaginary                 Qfactor

   1   -7.55128e+07                  0.00000e+00              5.00000e-01 
   2   -1.28223e+09                  0.00000e+00              5.00000e-01 

                      Zeros (Hz)
                      at I(IPRB0:in)/V0

           Real                       Imaginary                 Qfactor

   1    6.21710e+07                  0.00000e+00              -5.00000e-01
   2   -8.00396e+07                  0.00000e+00              5.00000e-01 

Constant factor =  9.00901e-04

DC gain =  4.63002e-05

......9......8......7......
90.8e-06      40.00% 
Convergence achieved in 2 iterations.
DC simulation time: CPU = 81 us, elapsed = 1.81103 ms.
                      Poles (Hz)

           Real                       Imaginary                 Qfactor

   1   -7.74433e+07                  0.00000e+00              5.00000e-01 
   2   -1.28073e+09                  0.00000e+00              5.00000e-01 

                      Zeros (Hz)
                      at I(IPRB0:in)/V0

           Real                       Imaginary                 Qfactor

   1    6.37991e+07                  0.00000e+00              -5.00000e-01
   2   -8.21021e+07                  0.00000e+00              5.00000e-01 

Constant factor =  9.00901e-04

DC gain =  4.75776e-05

......9......8......7......6
95.34e-06     42.00% 
Convergence achieved in 2 iterations.
DC simulation time: CPU = 75 us, elapsed = 96.0827 us.
                      Poles (Hz)

           Real                       Imaginary                 Qfactor

   1   -7.93786e+07                  0.00000e+00              5.00000e-01 
   2   -1.27923e+09                  0.00000e+00              5.00000e-01 

                      Zeros (Hz)
                      at I(IPRB0:in)/V0

           Real                       Imaginary                 Qfactor

   1    6.53823e+07                  0.00000e+00              -5.00000e-01
   2   -8.41197e+07                  0.00000e+00              5.00000e-01 

Constant factor =  9.00901e-04

DC gain =  4.87957e-05

......9......8......7......6.
99.88e-06     44.00% 
Convergence achieved in 2 iterations.
DC simulation time: CPU = 135 us, elapsed = 1.477 ms.
                      Poles (Hz)

           Real                       Imaginary                 Qfactor

   1   -8.13188e+07                  0.00000e+00              5.00000e-01 
   2   -1.27773e+09                  0.00000e+00              5.00000e-01 

                      Zeros (Hz)
                      at I(IPRB0:in)/V0

           Real                       Imaginary                 Qfactor

   1    6.69238e+07                  0.00000e+00              -5.00000e-01
   2   -8.60956e+07                  0.00000e+00              5.00000e-01 

Constant factor =  9.00901e-04

DC gain =  4.99585e-05

......9......8......7......6...
104.42e-06    46.00% 
Convergence achieved in 2 iterations.
DC simulation time: CPU = 102 us, elapsed = 1.88804 ms.
                      Poles (Hz)

           Real                       Imaginary                 Qfactor

   1   -8.32638e+07                  0.00000e+00              5.00000e-01 
   2   -1.27622e+09                  0.00000e+00              5.00000e-01 

                      Zeros (Hz)
                      at I(IPRB0:in)/V0

           Real                       Imaginary                 Qfactor

   1    6.84263e+07                  0.00000e+00              -5.00000e-01
   2   -8.80326e+07                  0.00000e+00              5.00000e-01 

Constant factor =  9.00901e-04

DC gain =  5.10696e-05

......9......8......7......6....
108.96e-06    48.00% 
Convergence achieved in 2 iterations.
DC simulation time: CPU = 102 us, elapsed = 119.209 us.
                      Poles (Hz)

           Real                       Imaginary                 Qfactor

   1   -8.52138e+07                  0.00000e+00              5.00000e-01 
   2   -1.27470e+09                  0.00000e+00              5.00000e-01 

                      Zeros (Hz)
                      at I(IPRB0:in)/V0

           Real                       Imaginary                 Qfactor

   1    6.98924e+07                  0.00000e+00              -5.00000e-01
   2   -8.99332e+07                  0.00000e+00              5.00000e-01 

Constant factor =  9.00901e-04

DC gain =  5.21325e-05

......9......8......7......6......
113.5e-06     50.00% 
Convergence achieved in 2 iterations.
DC simulation time: CPU = 76 us, elapsed = 94.1753 us.
                      Poles (Hz)

           Real                       Imaginary                 Qfactor

   1   -8.71688e+07                  0.00000e+00              5.00000e-01 
   2   -1.27318e+09                  0.00000e+00              5.00000e-01 

                      Zeros (Hz)
                      at I(IPRB0:in)/V0

           Real                       Imaginary                 Qfactor

   1    7.13244e+07                  0.00000e+00              -5.00000e-01
   2   -9.17996e+07                  0.00000e+00              5.00000e-01 

Constant factor =  9.00901e-04

DC gain =  5.31501e-05

......9......8......7......6......5
118.04e-06    52.00% 
Convergence achieved in 2 iterations.
DC simulation time: CPU = 105 us, elapsed = 124.931 us.
                      Poles (Hz)

           Real                       Imaginary                 Qfactor

   1   -8.91288e+07                  0.00000e+00              5.00000e-01 
   2   -1.27166e+09                  0.00000e+00              5.00000e-01 

                      Zeros (Hz)
                      at I(IPRB0:in)/V0

           Real                       Imaginary                 Qfactor

   1    7.27242e+07                  0.00000e+00              -5.00000e-01
   2   -9.36339e+07                  0.00000e+00              5.00000e-01 

Constant factor =  9.00901e-04

DC gain =  5.41254e-05

......9......8......7......6......5.
122.58e-06    54.00% 
Convergence achieved in 2 iterations.
DC simulation time: CPU = 102 us, elapsed = 118.971 us.
                      Poles (Hz)

           Real                       Imaginary                 Qfactor

   1   -9.10939e+07                  0.00000e+00              5.00000e-01 
   2   -1.27013e+09                  0.00000e+00              5.00000e-01 

                      Zeros (Hz)
                      at I(IPRB0:in)/V0

           Real                       Imaginary                 Qfactor

   1    7.40938e+07                  0.00000e+00              -5.00000e-01
   2   -9.54379e+07                  0.00000e+00              5.00000e-01 

Constant factor =  9.00901e-04

DC gain =  5.50609e-05

......9......8......7......6......5...
127.12e-06    56.00% 
Convergence achieved in 2 iterations.
DC simulation time: CPU = 84 us, elapsed = 109.911 us.
                      Poles (Hz)

           Real                       Imaginary                 Qfactor

   1   -9.30641e+07                  0.00000e+00              5.00000e-01 
   2   -1.26859e+09                  0.00000e+00              5.00000e-01 

                      Zeros (Hz)
                      at I(IPRB0:in)/V0

           Real                       Imaginary                 Qfactor

   1    7.54348e+07                  0.00000e+00              -5.00000e-01
   2   -9.72132e+07                  0.00000e+00              5.00000e-01 

Constant factor =  9.00901e-04

DC gain =  5.59591e-05

......9......8......7......6......5....
131.66e-06    58.00% 
Convergence achieved in 2 iterations.
DC simulation time: CPU = 86 us, elapsed = 103.951 us.
                      Poles (Hz)

           Real                       Imaginary                 Qfactor

   1   -9.50395e+07                  0.00000e+00              5.00000e-01 
   2   -1.26705e+09                  0.00000e+00              5.00000e-01 

                      Zeros (Hz)
                      at I(IPRB0:in)/V0

           Real                       Imaginary                 Qfactor

   1    7.67486e+07                  0.00000e+00              -5.00000e-01
   2   -9.89615e+07                  0.00000e+00              5.00000e-01 

Constant factor =  9.00901e-04

DC gain =  5.68220e-05

......9......8......7......6......5......
136.2e-06     60.00% 
Convergence achieved in 2 iterations.
DC simulation time: CPU = 81 us, elapsed = 91.7912 us.
                      Poles (Hz)

           Real                       Imaginary                 Qfactor

   1   -9.70201e+07                  0.00000e+00              5.00000e-01 
   2   -1.26550e+09                  0.00000e+00              5.00000e-01 

                      Zeros (Hz)
                      at I(IPRB0:in)/V0

           Real                       Imaginary                 Qfactor

   1    7.80368e+07                  0.00000e+00              -5.00000e-01
   2   -1.00684e+08                  0.00000e+00              5.00000e-01 

Constant factor =  9.00901e-04

DC gain =  5.76518e-05

......9......8......7......6......5......4
140.74e-06    62.00% 
Convergence achieved in 2 iterations.
DC simulation time: CPU = 60 us, elapsed = 69.1414 us.
                      Poles (Hz)

           Real                       Imaginary                 Qfactor

   1   -9.90059e+07                  0.00000e+00              5.00000e-01 
   2   -1.26395e+09                  0.00000e+00              5.00000e-01 

                      Zeros (Hz)
                      at I(IPRB0:in)/V0

           Real                       Imaginary                 Qfactor

   1    7.93005e+07                  0.00000e+00              -5.00000e-01
   2   -1.02382e+08                  0.00000e+00              5.00000e-01 

Constant factor =  9.00901e-04

DC gain =  5.84502e-05

......9......8......7......6......5......4.
145.28e-06    64.00% 
Convergence achieved in 2 iterations.
DC simulation time: CPU = 58 us, elapsed = 70.0951 us.
                      Poles (Hz)

           Real                       Imaginary                 Qfactor

   1   -1.00997e+08                  0.00000e+00              5.00000e-01 
   2   -1.26239e+09                  0.00000e+00              5.00000e-01 

                      Zeros (Hz)
                      at I(IPRB0:in)/V0

           Real                       Imaginary                 Qfactor

   1    8.05410e+07                  0.00000e+00              -5.00000e-01
   2   -1.04057e+08                  0.00000e+00              5.00000e-01 

Constant factor =  9.00901e-04

DC gain =  5.92191e-05

......9......8......7......6......5......4...
149.82e-06    66.00% 
Convergence achieved in 2 iterations.
DC simulation time: CPU = 59 us, elapsed = 69.8566 us.
                      Poles (Hz)

           Real                       Imaginary                 Qfactor

   1   -1.02994e+08                  0.00000e+00              5.00000e-01 
   2   -1.26083e+09                  0.00000e+00              5.00000e-01 

                      Zeros (Hz)
                      at I(IPRB0:in)/V0

           Real                       Imaginary                 Qfactor

   1    8.17593e+07                  0.00000e+00              -5.00000e-01
   2   -1.05710e+08                  0.00000e+00              5.00000e-01 

Constant factor =  9.00901e-04

DC gain =  5.99601e-05

......9......8......7......6......5......4....
154.36e-06    68.00% 
Convergence achieved in 2 iterations.
DC simulation time: CPU = 66 us, elapsed = 86.0691 us.
                      Poles (Hz)

           Real                       Imaginary                 Qfactor

   1   -1.04995e+08                  0.00000e+00              5.00000e-01 
   2   -1.25926e+09                  0.00000e+00              5.00000e-01 

                      Zeros (Hz)
                      at I(IPRB0:in)/V0

           Real                       Imaginary                 Qfactor

   1    8.29564e+07                  0.00000e+00              -5.00000e-01
   2   -1.07342e+08                  0.00000e+00              5.00000e-01 

Constant factor =  9.00901e-04

DC gain =  6.06747e-05

......9......8......7......6......5......4......
158.9e-06     70.00% 
Convergence achieved in 2 iterations.
DC simulation time: CPU = 74 us, elapsed = 87.0228 us.
                      Poles (Hz)

           Real                       Imaginary                 Qfactor

   1   -1.07003e+08                  0.00000e+00              5.00000e-01 
   2   -1.25769e+09                  0.00000e+00              5.00000e-01 

                      Zeros (Hz)
                      at I(IPRB0:in)/V0

           Real                       Imaginary                 Qfactor

   1    8.41334e+07                  0.00000e+00              -5.00000e-01
   2   -1.08953e+08                  0.00000e+00              5.00000e-01 

Constant factor =  9.00901e-04

DC gain =  6.13641e-05

......9......8......7......6......5......4......3
163.44e-06    72.00% 
Convergence achieved in 2 iterations.
DC simulation time: CPU = 96 us, elapsed = 108.957 us.
                      Poles (Hz)

           Real                       Imaginary                 Qfactor

   1   -1.09016e+08                  0.00000e+00              5.00000e-01 
   2   -1.25611e+09                  0.00000e+00              5.00000e-01 

                      Zeros (Hz)
                      at I(IPRB0:in)/V0

           Real                       Imaginary                 Qfactor

   1    8.52909e+07                  0.00000e+00              -5.00000e-01
   2   -1.10545e+08                  0.00000e+00              5.00000e-01 

Constant factor =  9.00901e-04

DC gain =  6.20298e-05

......9......8......7......6......5......4......3.
167.98e-06    74.00% 
Convergence achieved in 2 iterations.
DC simulation time: CPU = 121 us, elapsed = 136.852 us.
                      Poles (Hz)

           Real                       Imaginary                 Qfactor

   1   -1.11034e+08                  0.00000e+00              5.00000e-01 
   2   -1.25453e+09                  0.00000e+00              5.00000e-01 

                      Zeros (Hz)
                      at I(IPRB0:in)/V0

           Real                       Imaginary                 Qfactor

   1    8.64299e+07                  0.00000e+00              -5.00000e-01
   2   -1.12118e+08                  0.00000e+00              5.00000e-01 

Constant factor =  9.00901e-04

DC gain =  6.26730e-05

......9......8......7......6......5......4......3...
172.52e-06    76.00% 
Convergence achieved in 2 iterations.
DC simulation time: CPU = 76 us, elapsed = 90.1222 us.
                      Poles (Hz)

           Real                       Imaginary                 Qfactor

   1   -1.13058e+08                  0.00000e+00              5.00000e-01 
   2   -1.25294e+09                  0.00000e+00              5.00000e-01 

                      Zeros (Hz)
                      at I(IPRB0:in)/V0

           Real                       Imaginary                 Qfactor

   1    8.75511e+07                  0.00000e+00              -5.00000e-01
   2   -1.13674e+08                  0.00000e+00              5.00000e-01 

Constant factor =  9.00901e-04

DC gain =  6.32947e-05

......9......8......7......6......5......4......3....
177.06e-06    78.00% 
Convergence achieved in 2 iterations.
DC simulation time: CPU = 53 us, elapsed = 66.0419 us.
                      Poles (Hz)

           Real                       Imaginary                 Qfactor

   1   -1.15088e+08                  0.00000e+00              5.00000e-01 
   2   -1.25134e+09                  0.00000e+00              5.00000e-01 

                      Zeros (Hz)
                      at I(IPRB0:in)/V0

           Real                       Imaginary                 Qfactor

   1    8.86552e+07                  0.00000e+00              -5.00000e-01
   2   -1.15212e+08                  0.00000e+00              5.00000e-01 

Constant factor =  9.00901e-04

DC gain =  6.38961e-05

......9......8......7......6......5......4......3......
181.6e-06     80.00% 
Convergence achieved in 2 iterations.
DC simulation time: CPU = 83 us, elapsed = 95.129 us.
                      Poles (Hz)

           Real                       Imaginary                 Qfactor

   1   -1.17123e+08                  0.00000e+00              5.00000e-01 
   2   -1.24974e+09                  0.00000e+00              5.00000e-01 

                      Zeros (Hz)
                      at I(IPRB0:in)/V0

           Real                       Imaginary                 Qfactor

   1    8.97428e+07                  0.00000e+00              -5.00000e-01
   2   -1.16734e+08                  0.00000e+00              5.00000e-01 

Constant factor =  9.00901e-04

DC gain =  6.44781e-05

......9......8......7......6......5......4......3......2
186.14e-06    82.00% 
Convergence achieved in 2 iterations.
DC simulation time: CPU = 86 us, elapsed = 97.99 us.
                      Poles (Hz)

           Real                       Imaginary                 Qfactor

   1   -1.19164e+08                  0.00000e+00              5.00000e-01 
   2   -1.24814e+09                  0.00000e+00              5.00000e-01 

                      Zeros (Hz)
                      at I(IPRB0:in)/V0

           Real                       Imaginary                 Qfactor

   1    9.08146e+07                  0.00000e+00              -5.00000e-01
   2   -1.18241e+08                  0.00000e+00              5.00000e-01 

Constant factor =  9.00901e-04

DC gain =  6.50416e-05

......9......8......7......6......5......4......3......2.
190.68e-06    84.00% 
Convergence achieved in 2 iterations.
DC simulation time: CPU = 77 us, elapsed = 84.877 us.
                      Poles (Hz)

           Real                       Imaginary                 Qfactor

   1   -1.21211e+08                  0.00000e+00              5.00000e-01 
   2   -1.24652e+09                  0.00000e+00              5.00000e-01 

                      Zeros (Hz)
                      at I(IPRB0:in)/V0

           Real                       Imaginary                 Qfactor

   1    9.18711e+07                  0.00000e+00              -5.00000e-01
   2   -1.19732e+08                  0.00000e+00              5.00000e-01 

Constant factor =  9.00901e-04

DC gain =  6.55875e-05

......9......8......7......6......5......4......3......2...
195.22e-06    86.00% 
Convergence achieved in 2 iterations.
DC simulation time: CPU = 60 us, elapsed = 81.0623 us.
                      Poles (Hz)

           Real                       Imaginary                 Qfactor

   1   -1.23264e+08                  0.00000e+00              5.00000e-01 
   2   -1.24491e+09                  0.00000e+00              5.00000e-01 

                      Zeros (Hz)
                      at I(IPRB0:in)/V0

           Real                       Imaginary                 Qfactor

   1    9.29130e+07                  0.00000e+00              -5.00000e-01
   2   -1.21208e+08                  0.00000e+00              5.00000e-01 

Constant factor =  9.00901e-04

DC gain =  6.61166e-05

......9......8......7......6......5......4......3......2....
199.76e-06    88.00% 
Convergence achieved in 2 iterations.
DC simulation time: CPU = 51 us, elapsed = 59.8431 us.
                      Poles (Hz)

           Real                       Imaginary                 Qfactor

   1   -1.25323e+08                  0.00000e+00              5.00000e-01 
   2   -1.24328e+09                  0.00000e+00              5.00000e-01 

                      Zeros (Hz)
                      at I(IPRB0:in)/V0

           Real                       Imaginary                 Qfactor

   1    9.39406e+07                  0.00000e+00              -5.00000e-01
   2   -1.22670e+08                  0.00000e+00              5.00000e-01 

Constant factor =  9.00901e-04

DC gain =  6.66297e-05

......9......8......7......6......5......4......3......2......
204.3e-06     90.00% 
Convergence achieved in 2 iterations.
DC simulation time: CPU = 56 us, elapsed = 77.0092 us.
                      Poles (Hz)

           Real                       Imaginary                 Qfactor

   1   -1.27388e+08                  0.00000e+00              5.00000e-01 
   2   -1.24165e+09                  0.00000e+00              5.00000e-01 

                      Zeros (Hz)
                      at I(IPRB0:in)/V0

           Real                       Imaginary                 Qfactor

   1    9.49545e+07                  0.00000e+00              -5.00000e-01
   2   -1.24118e+08                  0.00000e+00              5.00000e-01 

Constant factor =  9.00901e-04

DC gain =  6.71275e-05

......9......8......7......6......5......4......3......2......1
208.84e-06    92.00% 
Convergence achieved in 2 iterations.
DC simulation time: CPU = 54 us, elapsed = 66.9956 us.
                      Poles (Hz)

           Real                       Imaginary                 Qfactor

   1   -1.29459e+08                  0.00000e+00              5.00000e-01 
   2   -1.24001e+09                  0.00000e+00              5.00000e-01 

                      Zeros (Hz)
                      at I(IPRB0:in)/V0

           Real                       Imaginary                 Qfactor

   1    9.59551e+07                  0.00000e+00              -5.00000e-01
   2   -1.25553e+08                  0.00000e+00              5.00000e-01 

Constant factor =  9.00901e-04

DC gain =  6.76107e-05

......9......8......7......6......5......4......3......2......1.
213.38e-06    94.00% 
Convergence achieved in 2 iterations.
DC simulation time: CPU = 62 us, elapsed = 73.9098 us.
                      Poles (Hz)

           Real                       Imaginary                 Qfactor

   1   -1.31536e+08                  0.00000e+00              5.00000e-01 
   2   -1.23837e+09                  0.00000e+00              5.00000e-01 

                      Zeros (Hz)
                      at I(IPRB0:in)/V0

           Real                       Imaginary                 Qfactor

   1    9.69429e+07                  0.00000e+00              -5.00000e-01
   2   -1.26976e+08                  0.00000e+00              5.00000e-01 

Constant factor =  9.00901e-04

DC gain =  6.80799e-05

......9......8......7......6......5......4......3......2......1...
217.92e-06    96.00% 
Convergence achieved in 2 iterations.
DC simulation time: CPU = 75 us, elapsed = 92.0296 us.
                      Poles (Hz)

           Real                       Imaginary                 Qfactor

   1   -1.33619e+08                  0.00000e+00              5.00000e-01 
   2   -1.23672e+09                  0.00000e+00              5.00000e-01 

                      Zeros (Hz)
                      at I(IPRB0:in)/V0

           Real                       Imaginary                 Qfactor

   1    9.79184e+07                  0.00000e+00              -5.00000e-01
   2   -1.28385e+08                  0.00000e+00              5.00000e-01 

Constant factor =  9.00901e-04

DC gain =  6.85356e-05

......9......8......7......6......5......4......3......2......1....
222.46e-06    98.00% 
Convergence achieved in 2 iterations.
DC simulation time: CPU = 53 us, elapsed = 62.9425 us.
                      Poles (Hz)

           Real                       Imaginary                 Qfactor

   1   -1.35708e+08                  0.00000e+00              5.00000e-01 
   2   -1.23507e+09                  0.00000e+00              5.00000e-01 

                      Zeros (Hz)
                      at I(IPRB0:in)/V0

           Real                       Imaginary                 Qfactor

   1    9.88817e+07                  0.00000e+00              -5.00000e-01
   2   -1.29783e+08                  0.00000e+00              5.00000e-01 

Constant factor =  9.00901e-04

DC gain =  6.89786e-05

......9......8......7......6......5......4......3......2......1......
227e-06      100.00% 
Convergence achieved in 2 iterations.
DC simulation time: CPU = 50 us, elapsed = 65.0883 us.
                      Poles (Hz)

           Real                       Imaginary                 Qfactor

   1   -1.37804e+08                  0.00000e+00              5.00000e-01 
   2   -1.23341e+09                  0.00000e+00              5.00000e-01 

                      Zeros (Hz)
                      at I(IPRB0:in)/V0

           Real                       Imaginary                 Qfactor

   1    9.98335e+07                  0.00000e+00              -5.00000e-01
   2   -1.31169e+08                  0.00000e+00              5.00000e-01 

Constant factor =  9.00901e-04

DC gain =  6.94092e-05

......9......8......7......6......5......4......3......2......1......0
Accumulated DC solution time =            25.3708 ms.
Intrinsic pz analysis time =              174.631 ms.
Total time required for pz analysis `pz': CPU = 54.95 ms, elapsed = 200.077 ms, util. = 27.5%.
Time accumulated: CPU = 421.991 ms, elapsed = 768.85 ms.
Peak resident memory used = 214 Mbytes.

modelParameter: writing model parameter values to rawfile.

Opening the PSF file ../psf/modelParameter.info ...
element: writing instance parameter values to rawfile.

Opening the PSF file ../psf/element.info ...
outputParameter: writing output parameter values to rawfile.

Opening the PSF file ../psf/outputParameter.info ...
designParamVals: writing netlist parameters to rawfile.

Opening the PSFASCII file ../psf/designParamVals.info ...
primitives: writing primitives to rawfile.

Opening the PSFASCII file ../psf/primitives.info.primitives ...
subckts: writing subcircuits to rawfile.

Opening the PSFASCII file ../psf/subckts.info.subckts ...
Licensing Information:
Lic Summary:
[15:20:57.393499] Cdslmd servers:3000@lic08.ug.kth.se
[15:20:57.393544] Feature usage summary:
[15:20:57.393545] Virtuoso_Multi_mode_Simulation


Aggregate audit (3:20:57 PM, Sun Nov 9, 2025):
Time used: CPU = 433 ms, elapsed = 818 ms, util. = 52.9%.
Time spent in licensing: elapsed = 79.1 ms, percentage of total = 9.67%.
Peak memory used = 216 Mbytes.
Simulation started at: 3:20:56 PM, Sun Nov 9, 2025, ended at: 3:20:57 PM, Sun Nov 9, 2025, with elapsed time (wall clock): 818 ms.
spectre completes with 0 errors, 0 warnings, and 4 notices.


********* LOG ENDS **************
**                             **
