
Spectre (R) Circuit Simulator
Version 24.1.0.288.isr5 64bit -- 3 Apr 2025
Copyright (C) 1989-2025 Cadence Design Systems, Inc. All rights reserved worldwide. Cadence and Spectre are registered trademarks of Cadence Design Systems, Inc. All others are the property of their respective holders.

Includes RSA BSAFE(R) Cryptographic or Security Protocol Software from RSA Security, Inc.

User: saul   Host: edatools   HostID: 11AC0200   PID: 25776
Memory  available: 24.4420 GB  physical: 27.3104 GB
Linux   : Rocky Linux release 8.10 (Green Obsidian)
CPU Type: 11th Gen Intel(R) Core(TM) i7-11700K @ 3.60GHz
All processors running at 3600.0 MHz
        Socket: Processors
        0:       0,  1,  2,  3,  4,  5,  6,  7,  8,  9
                10, 11, 12, 13, 14, 15
        
System load averages (1min, 5min, 15min) : 8.0 %, 5.0 %, 3.9 %
HPC is enabled


Simulating `input.scs' on edatools at 11:04:23 AM, Mon Nov 17, 2025 (process id: 25776).
Current working directory: /home/saul/projects/FIL3601/Sim/DAY6/ex2/adexl/results/data/Interactive.17/1/DAY6:ex2:1/netlist
Command line:
    /opt/tools/cadence/installs/SPECTRE241/tools/bin/spectre -64  \
        input.scs +escchars +log ../psf/spectre.out -format psfxl -raw  \
        ../psf +aps +mt +lqtimeout 900 -maxw 5 -maxn 5 -env ade  \
        -ahdllibdir  \
        /home/saul/projects/FIL3601/Sim/DAY6/ex2/adexl/results/data/Interactive.17/sharedData/Job0/ahdl/input.ahdlSimDB  \
        +logstatus  \
        +adespetkn=0001089D13A302B663E41FB550AF0DF415A679A322D5069144BF588C12F604E07EF416DC01A319B562BB63D375EF33A645A336CD3CAE1AEA01D740D6148D4F9261EB79D15D9175FF34980CBD6B9974D3349877CA11EF18A05BF743E52ACC46E70EAC79D12BF874D3349879D118F874D3349810CA19CC75E75D83000036BC

Simulation Id: GuJozS5On974ltUs
Licensing Information:
[11:04:23.188761] Configured Lic search path (24.01-s002): 3000@lic08.ug.kth.se

Licensing Information:
[11:04:23.413136] Periodic Lic check successful

Loading /opt/tools/cadence/installs/SPECTRE241/tools.lnx86/cmi/lib/64bit/5.0/libinfineon_sh.so ...
Loading /opt/tools/cadence/installs/SPECTRE241/tools.lnx86/cmi/lib/64bit/5.0/libphilips_I_sh.so ...
Loading /opt/tools/cadence/installs/SPECTRE241/tools.lnx86/cmi/lib/64bit/5.0/libphilips_sh.so ...
Loading /opt/tools/cadence/installs/SPECTRE241/tools.lnx86/cmi/lib/64bit/5.0/libsparam_sh.so ...
Loading /opt/tools/cadence/installs/SPECTRE241/tools.lnx86/cmi/lib/64bit/5.0/libstmodels_sh.so ...
Reading file:  /home/saul/projects/FIL3601/Sim/DAY6/ex2/adexl/results/data/Interactive.17/1/DAY6:ex2:1/netlist/input.scs
Reading file:  /opt/tools/cadence/installs/SPECTRE241/tools.lnx86/spectre/etc/configs/spectre.cfg
Reading file:  /opt/pdk/xfab/XKIT/xh018/cadence/v10_0/spectre/v10_0_2/lpmos/config.scs
Reading file:  /opt/pdk/xfab/XKIT/xh018/cadence/v10_0/spectre/v10_0_2/lpmos/param.scs
Reading file:  /opt/pdk/xfab/XKIT/xh018/cadence/v10_0/spectre/v10_0_2/lpmos/bip.scs
Reading file:  /opt/pdk/xfab/XKIT/xh018/cadence/v10_0/spectre/v10_0_2/lpmos/models/bip/tm_bip.scs
Reading file:  /opt/pdk/xfab/XKIT/xh018/cadence/v10_0/spectre/v10_0_2/lpmos/models/bip/qpva.scs
Reading file:  /opt/pdk/xfab/XKIT/xh018/cadence/v10_0/spectre/v10_0_2/lpmos/models/bip/qpvb.scs
Reading file:  /opt/pdk/xfab/XKIT/xh018/cadence/v10_0/spectre/v10_0_2/lpmos/models/bip/qpvc.scs
Reading file:  /opt/pdk/xfab/XKIT/xh018/cadence/v10_0/spectre/v10_0_2/lpmos/models/bip/qpva3.scs
Reading file:  /opt/pdk/xfab/XKIT/xh018/cadence/v10_0/spectre/v10_0_2/lpmos/models/bip/qpvb3.scs
Reading file:  /opt/pdk/xfab/XKIT/xh018/cadence/v10_0/spectre/v10_0_2/lpmos/models/bip/qpvc3.scs
Reading file:  /opt/pdk/xfab/XKIT/xh018/cadence/v10_0/spectre/v10_0_2/lpmos/models/bip/qnva.scs
Reading file:  /opt/pdk/xfab/XKIT/xh018/cadence/v10_0/spectre/v10_0_2/lpmos/models/bip/qnvb.scs
Reading file:  /opt/pdk/xfab/XKIT/xh018/cadence/v10_0/spectre/v10_0_2/lpmos/models/bip/qnvba.scs
Reading file:  /opt/pdk/xfab/XKIT/xh018/cadence/v10_0/spectre/v10_0_2/lpmos/models/bip/qnvbb.scs
Reading file:  /opt/pdk/xfab/XKIT/xh018/cadence/v10_0/spectre/v10_0_2/lpmos/models/bip/qnvc.scs
Reading file:  /opt/pdk/xfab/XKIT/xh018/cadence/v10_0/spectre/v10_0_2/lpmos/models/bip/qnvca.scs
Reading file:  /opt/pdk/xfab/XKIT/xh018/cadence/v10_0/spectre/v10_0_2/lpmos/models/bip/qnvcb.scs
Reading file:  /opt/pdk/xfab/XKIT/xh018/cadence/v10_0/spectre/v10_0_2/lpmos/models/bip/qpvhscr.scs
Reading file:  /opt/pdk/xfab/XKIT/xh018/cadence/v10_0/spectre/v10_0_2/lpmos/models/bip/qpvascr.scs
Reading file:  /opt/pdk/xfab/XKIT/xh018/cadence/v10_0/spectre/v10_0_2/lpmos/models/bip/qpvhbscr.scs
Reading file:  /opt/pdk/xfab/XKIT/xh018/cadence/v10_0/spectre/v10_0_2/lpmos/models/bip/qpv_pa.scs
Reading file:  /opt/pdk/xfab/XKIT/xh018/cadence/v10_0/spectre/v10_0_2/lpmos/models/bip/qpv_pb.scs
Reading file:  /opt/pdk/xfab/XKIT/xh018/cadence/v10_0/spectre/v10_0_2/lpmos/models/bip/qpv_pc.scs
Reading file:  /opt/pdk/xfab/XKIT/xh018/cadence/v10_0/spectre/v10_0_2/lpmos/models/bip/qpv_pd.scs
Reading file:  /opt/pdk/xfab/XKIT/xh018/cadence/v10_0/spectre/v10_0_2/lpmos/models/bip/qpv_pe.scs
Reading file:  /opt/pdk/xfab/XKIT/xh018/cadence/v10_0/spectre/v10_0_2/lpmos/models/bip/qpv_pf.scs
Reading file:  /opt/pdk/xfab/XKIT/xh018/cadence/v10_0/spectre/v10_0_2/lpmos/models/bip/qpl_pa.scs
Reading file:  /opt/pdk/xfab/XKIT/xh018/cadence/v10_0/spectre/v10_0_2/lpmos/models/bip/qpl_pb.scs
Reading file:  /opt/pdk/xfab/XKIT/xh018/cadence/v10_0/spectre/v10_0_2/lpmos/models/bip/qpl_pc.scs
Reading file:  /opt/pdk/xfab/XKIT/xh018/cadence/v10_0/spectre/v10_0_2/lpmos/models/bip/qpl_pd.scs
Reading file:  /opt/pdk/xfab/XKIT/xh018/cadence/v10_0/spectre/v10_0_2/lpmos/models/bip/qpl_pe.scs
Reading file:  /opt/pdk/xfab/XKIT/xh018/cadence/v10_0/spectre/v10_0_2/lpmos/models/bip/qpl_pf.scs
Reading file:  /opt/pdk/xfab/XKIT/xh018/cadence/v10_0/spectre/v10_0_2/lpmos/models/bip/qnl_pa.scs
Reading file:  /opt/pdk/xfab/XKIT/xh018/cadence/v10_0/spectre/v10_0_2/lpmos/models/bip/qnl_pb.scs
Reading file:  /opt/pdk/xfab/XKIT/xh018/cadence/v10_0/spectre/v10_0_2/lpmos/models/bip/qnl_pc.scs
Reading file:  /opt/pdk/xfab/XKIT/xh018/cadence/v10_0/spectre/v10_0_2/lpmos/models/bip/qnl_pd.scs
Reading file:  /opt/pdk/xfab/XKIT/xh018/cadence/v10_0/spectre/v10_0_2/lpmos/models/bip/qnl_pe.scs
Reading file:  /opt/pdk/xfab/XKIT/xh018/cadence/v10_0/spectre/v10_0_2/lpmos/models/bip/qnl_pf.scs
Reading file:  /opt/pdk/xfab/XKIT/xh018/cadence/v10_0/spectre/v10_0_2/lpmos/cap.scs
Reading file:  /opt/pdk/xfab/XKIT/xh018/cadence/v10_0/spectre/v10_0_2/lpmos/models/cap/tm_cap.scs
Reading file:  /opt/pdk/xfab/XKIT/xh018/cadence/v10_0/spectre/v10_0_2/lpmos/models/cap/csandwt3.scs
Reading file:  /opt/pdk/xfab/XKIT/xh018/cadence/v10_0/spectre/v10_0_2/lpmos/models/cap/csandwt4.scs
Reading file:  /opt/pdk/xfab/XKIT/xh018/cadence/v10_0/spectre/v10_0_2/lpmos/models/cap/csandwt5.scs
Reading file:  /opt/pdk/xfab/XKIT/xh018/cadence/v10_0/spectre/v10_0_2/lpmos/models/cap/csf2p.scs
Reading file:  /opt/pdk/xfab/XKIT/xh018/cadence/v10_0/spectre/v10_0_2/lpmos/models/cap/csf3p.scs
Reading file:  /opt/pdk/xfab/XKIT/xh018/cadence/v10_0/spectre/v10_0_2/lpmos/models/cap/csf3.scs
Reading file:  /opt/pdk/xfab/XKIT/xh018/cadence/v10_0/spectre/v10_0_2/lpmos/models/cap/csf4.scs
Reading file:  /opt/pdk/xfab/XKIT/xh018/cadence/v10_0/spectre/v10_0_2/lpmos/models/cap/csf5.scs
Reading file:  /opt/pdk/xfab/XKIT/xh018/cadence/v10_0/spectre/v10_0_2/lpmos/models/cap/csft4.scs
Reading file:  /opt/pdk/xfab/XKIT/xh018/cadence/v10_0/spectre/v10_0_2/lpmos/models/cap/csft5.scs
Reading file:  /opt/pdk/xfab/XKIT/xh018/cadence/v10_0/spectre/v10_0_2/lpmos/models/cap/csft6.scs
Reading file:  /opt/pdk/xfab/XKIT/xh018/cadence/v10_0/spectre/v10_0_2/lpmos/models/cap/csf3a.scs
Reading file:  /opt/pdk/xfab/XKIT/xh018/cadence/v10_0/spectre/v10_0_2/lpmos/models/cap/csf4a.scs
Reading file:  /opt/pdk/xfab/XKIT/xh018/cadence/v10_0/spectre/v10_0_2/lpmos/models/cap/csf5a.scs
Reading file:  /opt/pdk/xfab/XKIT/xh018/cadence/v10_0/spectre/v10_0_2/lpmos/models/cap/csft4a.scs
Reading file:  /opt/pdk/xfab/XKIT/xh018/cadence/v10_0/spectre/v10_0_2/lpmos/models/cap/csft5a.scs
Reading file:  /opt/pdk/xfab/XKIT/xh018/cadence/v10_0/spectre/v10_0_2/lpmos/models/cap/csft6a.scs
Reading file:  /opt/pdk/xfab/XKIT/xh018/cadence/v10_0/spectre/v10_0_2/lpmos/models/cap/cif3a.scs
Reading file:  /opt/pdk/xfab/XKIT/xh018/cadence/v10_0/spectre/v10_0_2/lpmos/models/cap/cif4a.scs
Reading file:  /opt/pdk/xfab/XKIT/xh018/cadence/v10_0/spectre/v10_0_2/lpmos/models/cap/cif5a.scs
Reading file:  /opt/pdk/xfab/XKIT/xh018/cadence/v10_0/spectre/v10_0_2/lpmos/models/cap/cift4a.scs
Reading file:  /opt/pdk/xfab/XKIT/xh018/cadence/v10_0/spectre/v10_0_2/lpmos/models/cap/cift5a.scs
Reading file:  /opt/pdk/xfab/XKIT/xh018/cadence/v10_0/spectre/v10_0_2/lpmos/models/cap/cift6a.scs
Reading file:  /opt/pdk/xfab/XKIT/xh018/cadence/v10_0/spectre/v10_0_2/lpmos/models/cap/cmm3.scs
Reading file:  /opt/pdk/xfab/XKIT/xh018/cadence/v10_0/spectre/v10_0_2/lpmos/models/cap/cmm4t.scs
Reading file:  /opt/pdk/xfab/XKIT/xh018/cadence/v10_0/spectre/v10_0_2/lpmos/models/cap/cmm4.scs
Reading file:  /opt/pdk/xfab/XKIT/xh018/cadence/v10_0/spectre/v10_0_2/lpmos/models/cap/cmm5t.scs
Reading file:  /opt/pdk/xfab/XKIT/xh018/cadence/v10_0/spectre/v10_0_2/lpmos/models/cap/cmm6t.scs
Reading file:  /opt/pdk/xfab/XKIT/xh018/cadence/v10_0/spectre/v10_0_2/lpmos/models/cap/cdmm4.scs
Reading file:  /opt/pdk/xfab/XKIT/xh018/cadence/v10_0/spectre/v10_0_2/lpmos/models/cap/cdmm4t.scs
Reading file:  /opt/pdk/xfab/XKIT/xh018/cadence/v10_0/spectre/v10_0_2/lpmos/models/cap/ctmm5.scs
Reading file:  /opt/pdk/xfab/XKIT/xh018/cadence/v10_0/spectre/v10_0_2/lpmos/models/cap/ctmm5t.scs
Reading file:  /opt/pdk/xfab/XKIT/xh018/cadence/v10_0/spectre/v10_0_2/lpmos/models/cap/cmmh3.scs
Reading file:  /opt/pdk/xfab/XKIT/xh018/cadence/v10_0/spectre/v10_0_2/lpmos/models/cap/cmmh4t.scs
Reading file:  /opt/pdk/xfab/XKIT/xh018/cadence/v10_0/spectre/v10_0_2/lpmos/models/cap/cmmh4.scs
Reading file:  /opt/pdk/xfab/XKIT/xh018/cadence/v10_0/spectre/v10_0_2/lpmos/models/cap/cmmh5t.scs
Reading file:  /opt/pdk/xfab/XKIT/xh018/cadence/v10_0/spectre/v10_0_2/lpmos/models/cap/cmmh6t.scs
Reading file:  /opt/pdk/xfab/XKIT/xh018/cadence/v10_0/spectre/v10_0_2/lpmos/models/cap/cdmmh4.scs
Reading file:  /opt/pdk/xfab/XKIT/xh018/cadence/v10_0/spectre/v10_0_2/lpmos/models/cap/cdmmh4t.scs
Reading file:  /opt/pdk/xfab/XKIT/xh018/cadence/v10_0/spectre/v10_0_2/lpmos/models/cap/ctmmh5.scs
Reading file:  /opt/pdk/xfab/XKIT/xh018/cadence/v10_0/spectre/v10_0_2/lpmos/models/cap/ctmmh5t.scs
Reading file:  /opt/pdk/xfab/XKIT/xh018/cadence/v10_0/spectre/v10_0_2/lpmos/models/cap/mosvc.scs
Reading file:  /opt/pdk/xfab/XKIT/xh018/cadence/v10_0/spectre/v10_0_2/lpmos/models/cap/mosvc_pmos.scs
Reading file:  /opt/pdk/xfab/XKIT/xh018/cadence/v10_0/spectre/v10_0_2/lpmos/models/cap/mosvci.scs
Reading file:  /opt/pdk/xfab/XKIT/xh018/cadence/v10_0/spectre/v10_0_2/lpmos/models/cap/mosvci_nmos.scs
Reading file:  /opt/pdk/xfab/XKIT/xh018/cadence/v10_0/spectre/v10_0_2/lpmos/models/cap/mosvci_m.scs
Reading file:  /opt/pdk/xfab/XKIT/xh018/cadence/v10_0/spectre/v10_0_2/lpmos/models/cap/mosvc3.scs
Reading file:  /opt/pdk/xfab/XKIT/xh018/cadence/v10_0/spectre/v10_0_2/lpmos/models/cap/mosvc3_pmos.scs
Reading file:  /opt/pdk/xfab/XKIT/xh018/cadence/v10_0/spectre/v10_0_2/lpmos/models/cap/mosvc3i.scs
Reading file:  /opt/pdk/xfab/XKIT/xh018/cadence/v10_0/spectre/v10_0_2/lpmos/models/cap/mosvc3i_nmos.scs
Reading file:  /opt/pdk/xfab/XKIT/xh018/cadence/v10_0/spectre/v10_0_2/lpmos/models/cap/mosvc3i_m.scs
Reading file:  /opt/pdk/xfab/XKIT/xh018/cadence/v10_0/spectre/v10_0_2/lpmos/models/cap/cpod.scs
Reading file:  /opt/pdk/xfab/XKIT/xh018/cadence/v10_0/spectre/v10_0_2/lpmos/models/cap/cpod_i.scs
Reading file:  /opt/pdk/xfab/XKIT/xh018/cadence/v10_0/spectre/v10_0_2/lpmos/models/cap/cpodhv.scs
Reading file:  /opt/pdk/xfab/XKIT/xh018/cadence/v10_0/spectre/v10_0_2/lpmos/models/cap/cpodhv_i.scs
Reading file:  /opt/pdk/xfab/XKIT/xh018/cadence/v10_0/spectre/v10_0_2/lpmos/models/cap/cp1sub.scs
Reading file:  /opt/pdk/xfab/XKIT/xh018/cadence/v10_0/spectre/v10_0_2/lpmos/models/cap/cp1suba.scs
Reading file:  /opt/pdk/xfab/XKIT/xh018/cadence/v10_0/spectre/v10_0_2/lpmos/models/cap/cp1subp.scs
Reading file:  /opt/pdk/xfab/XKIT/xh018/cadence/v10_0/spectre/v10_0_2/lpmos/models/cap/tag_25v.scs
Reading file:  /opt/pdk/xfab/XKIT/xh018/cadence/v10_0/spectre/v10_0_2/lpmos/models/cap/tag_60v.scs
Reading file:  /opt/pdk/xfab/XKIT/xh018/cadence/v10_0/spectre/v10_0_2/lpmos/dio.scs
Reading file:  /opt/pdk/xfab/XKIT/xh018/cadence/v10_0/spectre/v10_0_2/lpmos/models/dio/tm_dio.scs
Reading file:  /opt/pdk/xfab/XKIT/xh018/cadence/v10_0/spectre/v10_0_2/lpmos/models/dio/dn.scs
Reading file:  /opt/pdk/xfab/XKIT/xh018/cadence/v10_0/spectre/v10_0_2/lpmos/models/dio/dp.scs
Reading file:  /opt/pdk/xfab/XKIT/xh018/cadence/v10_0/spectre/v10_0_2/lpmos/models/dio/dnw.scs
Reading file:  /opt/pdk/xfab/XKIT/xh018/cadence/v10_0/spectre/v10_0_2/lpmos/models/dio/dn3.scs
Reading file:  /opt/pdk/xfab/XKIT/xh018/cadence/v10_0/spectre/v10_0_2/lpmos/models/dio/dnn3.scs
Reading file:  /opt/pdk/xfab/XKIT/xh018/cadence/v10_0/spectre/v10_0_2/lpmos/models/dio/dp3.scs
Reading file:  /opt/pdk/xfab/XKIT/xh018/cadence/v10_0/spectre/v10_0_2/lpmos/models/dio/dnw3.scs
Reading file:  /opt/pdk/xfab/XKIT/xh018/cadence/v10_0/spectre/v10_0_2/lpmos/models/dio/ddnwmv.scs
Reading file:  /opt/pdk/xfab/XKIT/xh018/cadence/v10_0/spectre/v10_0_2/lpmos/models/dio/dpdnwmv.scs
Reading file:  /opt/pdk/xfab/XKIT/xh018/cadence/v10_0/spectre/v10_0_2/lpmos/models/dio/dipdnwmv.scs
Reading file:  /opt/pdk/xfab/XKIT/xh018/cadence/v10_0/spectre/v10_0_2/lpmos/models/dio/ddnw.scs
Reading file:  /opt/pdk/xfab/XKIT/xh018/cadence/v10_0/spectre/v10_0_2/lpmos/models/dio/ddnwa.scs
Reading file:  /opt/pdk/xfab/XKIT/xh018/cadence/v10_0/spectre/v10_0_2/lpmos/models/dio/dpdnw.scs
Reading file:  /opt/pdk/xfab/XKIT/xh018/cadence/v10_0/spectre/v10_0_2/lpmos/models/dio/dipdnw.scs
Reading file:  /opt/pdk/xfab/XKIT/xh018/cadence/v10_0/spectre/v10_0_2/lpmos/models/dio/dnhpw.scs
Reading file:  /opt/pdk/xfab/XKIT/xh018/cadence/v10_0/spectre/v10_0_2/lpmos/models/dio/dnhpwa.scs
Reading file:  /opt/pdk/xfab/XKIT/xh018/cadence/v10_0/spectre/v10_0_2/lpmos/models/dio/dphnw.scs
Reading file:  /opt/pdk/xfab/XKIT/xh018/cadence/v10_0/spectre/v10_0_2/lpmos/models/dio/dphnwa.scs
Reading file:  /opt/pdk/xfab/XKIT/xh018/cadence/v10_0/spectre/v10_0_2/lpmos/models/dio/dhpw.scs
Reading file:  /opt/pdk/xfab/XKIT/xh018/cadence/v10_0/spectre/v10_0_2/lpmos/models/dio/dhnw.scs
Reading file:  /opt/pdk/xfab/XKIT/xh018/cadence/v10_0/spectre/v10_0_2/lpmos/models/dio/dndf.scs
Reading file:  /opt/pdk/xfab/XKIT/xh018/cadence/v10_0/spectre/v10_0_2/lpmos/models/dio/dpdwhn.scs
Reading file:  /opt/pdk/xfab/XKIT/xh018/cadence/v10_0/spectre/v10_0_2/lpmos/models/dio/dwhn.scs
Reading file:  /opt/pdk/xfab/XKIT/xh018/cadence/v10_0/spectre/v10_0_2/lpmos/models/dio/dpwhn.scs
Reading file:  /opt/pdk/xfab/XKIT/xh018/cadence/v10_0/spectre/v10_0_2/lpmos/models/dio/dpndf.scs
Reading file:  /opt/pdk/xfab/XKIT/xh018/cadence/v10_0/spectre/v10_0_2/lpmos/models/dio/dpdddnw.scs
Reading file:  /opt/pdk/xfab/XKIT/xh018/cadence/v10_0/spectre/v10_0_2/lpmos/models/dio/ddpldnw.scs
Reading file:  /opt/pdk/xfab/XKIT/xh018/cadence/v10_0/spectre/v10_0_2/lpmos/models/dio/dn3dpl.scs
Reading file:  /opt/pdk/xfab/XKIT/xh018/cadence/v10_0/spectre/v10_0_2/lpmos/models/dio/dbn.scs
Reading file:  /opt/pdk/xfab/XKIT/xh018/cadence/v10_0/spectre/v10_0_2/lpmos/models/dio/dpol.scs
Reading file:  /opt/pdk/xfab/XKIT/xh018/cadence/v10_0/spectre/v10_0_2/lpmos/models/dio/dnpdd_scr.scs
Reading file:  /opt/pdk/xfab/XKIT/xh018/cadence/v10_0/spectre/v10_0_2/lpmos/models/dio/dpdd_scr.scs
Reading file:  /opt/pdk/xfab/XKIT/xh018/cadence/v10_0/spectre/v10_0_2/lpmos/models/dio/dsb.scs
Reading file:  /opt/pdk/xfab/XKIT/xh018/cadence/v10_0/spectre/v10_0_2/lpmos/models/dio/dsba.scs
Reading file:  /opt/pdk/xfab/XKIT/xh018/cadence/v10_0/spectre/v10_0_2/lpmos/models/dio/dsba_qp1.scs
Reading file:  /opt/pdk/xfab/XKIT/xh018/cadence/v10_0/spectre/v10_0_2/lpmos/models/dio/dnp20.scs
Reading file:  /opt/pdk/xfab/XKIT/xh018/cadence/v10_0/spectre/v10_0_2/lpmos/models/dio/dpp20.scs
Reading file:  /opt/pdk/xfab/XKIT/xh018/cadence/v10_0/spectre/v10_0_2/lpmos/models/dio/dn3sci.scs
Reading file:  /opt/pdk/xfab/XKIT/xh018/cadence/v10_0/spectre/v10_0_2/lpmos/models/dio/dscidnwmv.scs
Reading file:  /opt/pdk/xfab/XKIT/xh018/cadence/v10_0/spectre/v10_0_2/lpmos/mos.scs
Reading file:  /opt/pdk/xfab/XKIT/xh018/cadence/v10_0/spectre/v10_0_2/lpmos/models/mos/tm_mos.scs
Reading file:  /opt/pdk/xfab/XKIT/xh018/cadence/v10_0/spectre/v10_0_2/lpmos/models/mos/ne.scs
Reading file:  /opt/pdk/xfab/XKIT/xh018/cadence/v10_0/spectre/v10_0_2/lpmos/models/mos/nei.scs
Reading file:  /opt/pdk/xfab/XKIT/xh018/cadence/v10_0/spectre/v10_0_2/lpmos/models/mos/nei_6.scs
Reading file:  /opt/pdk/xfab/XKIT/xh018/cadence/v10_0/spectre/v10_0_2/lpmos/models/mos/nei_m_6.scs
Reading file:  /opt/pdk/xfab/XKIT/xh018/cadence/v10_0/spectre/v10_0_2/lpmos/models/mos/nei_a_6.scs
Reading file:  /opt/pdk/xfab/XKIT/xh018/cadence/v10_0/spectre/v10_0_2/lpmos/models/mos/pe.scs
Reading file:  /opt/pdk/xfab/XKIT/xh018/cadence/v10_0/spectre/v10_0_2/lpmos/models/mos/pe_5.scs
Reading file:  /opt/pdk/xfab/XKIT/xh018/cadence/v10_0/spectre/v10_0_2/lpmos/models/mos/pei.scs
Reading file:  /opt/pdk/xfab/XKIT/xh018/cadence/v10_0/spectre/v10_0_2/lpmos/models/mos/pei_5.scs
Reading file:  /opt/pdk/xfab/XKIT/xh018/cadence/v10_0/spectre/v10_0_2/lpmos/models/mos/pei_m_5.scs
Reading file:  /opt/pdk/xfab/XKIT/xh018/cadence/v10_0/spectre/v10_0_2/lpmos/models/mos/pei_a_5.scs
Reading file:  /opt/pdk/xfab/XKIT/xh018/cadence/v10_0/spectre/v10_0_2/lpmos/models/mos/nel.scs
Reading file:  /opt/pdk/xfab/XKIT/xh018/cadence/v10_0/spectre/v10_0_2/lpmos/models/mos/neli.scs
Reading file:  /opt/pdk/xfab/XKIT/xh018/cadence/v10_0/spectre/v10_0_2/lpmos/models/mos/neli_6.scs
Reading file:  /opt/pdk/xfab/XKIT/xh018/cadence/v10_0/spectre/v10_0_2/lpmos/models/mos/neli_m_6.scs
Reading file:  /opt/pdk/xfab/XKIT/xh018/cadence/v10_0/spectre/v10_0_2/lpmos/models/mos/pel.scs
Reading file:  /opt/pdk/xfab/XKIT/xh018/cadence/v10_0/spectre/v10_0_2/lpmos/models/mos/pel_5.scs
Reading file:  /opt/pdk/xfab/XKIT/xh018/cadence/v10_0/spectre/v10_0_2/lpmos/models/mos/peli.scs
Reading file:  /opt/pdk/xfab/XKIT/xh018/cadence/v10_0/spectre/v10_0_2/lpmos/models/mos/peli_5.scs
Reading file:  /opt/pdk/xfab/XKIT/xh018/cadence/v10_0/spectre/v10_0_2/lpmos/models/mos/peli_m_5.scs
Reading file:  /opt/pdk/xfab/XKIT/xh018/cadence/v10_0/spectre/v10_0_2/lpmos/models/mos/nn3.scs
Reading file:  /opt/pdk/xfab/XKIT/xh018/cadence/v10_0/spectre/v10_0_2/lpmos/models/mos/ne3.scs
Reading file:  /opt/pdk/xfab/XKIT/xh018/cadence/v10_0/spectre/v10_0_2/lpmos/models/mos/ne3i.scs
Reading file:  /opt/pdk/xfab/XKIT/xh018/cadence/v10_0/spectre/v10_0_2/lpmos/models/mos/ne3i_6.scs
Reading file:  /opt/pdk/xfab/XKIT/xh018/cadence/v10_0/spectre/v10_0_2/lpmos/models/mos/ne3i_m_6.scs
Reading file:  /opt/pdk/xfab/XKIT/xh018/cadence/v10_0/spectre/v10_0_2/lpmos/models/mos/ne3i_a_6.scs
Reading file:  /opt/pdk/xfab/XKIT/xh018/cadence/v10_0/spectre/v10_0_2/lpmos/models/mos/pe3.scs
Reading file:  /opt/pdk/xfab/XKIT/xh018/cadence/v10_0/spectre/v10_0_2/lpmos/models/mos/pe3_5.scs
Reading file:  /opt/pdk/xfab/XKIT/xh018/cadence/v10_0/spectre/v10_0_2/lpmos/models/mos/pe3i.scs
Reading file:  /opt/pdk/xfab/XKIT/xh018/cadence/v10_0/spectre/v10_0_2/lpmos/models/mos/pe3i_5.scs
Reading file:  /opt/pdk/xfab/XKIT/xh018/cadence/v10_0/spectre/v10_0_2/lpmos/models/mos/pe3i_m_5.scs
Reading file:  /opt/pdk/xfab/XKIT/xh018/cadence/v10_0/spectre/v10_0_2/lpmos/models/mos/pe3i_a_5.scs
Reading file:  /opt/pdk/xfab/XKIT/xh018/cadence/v10_0/spectre/v10_0_2/lpmos/models/mos/pe3ln.scs
Reading file:  /opt/pdk/xfab/XKIT/xh018/cadence/v10_0/spectre/v10_0_2/lpmos/models/mos/pe3ln_5.scs
Reading file:  /opt/pdk/xfab/XKIT/xh018/cadence/v10_0/spectre/v10_0_2/lpmos/models/mos/pe3lni.scs
Reading file:  /opt/pdk/xfab/XKIT/xh018/cadence/v10_0/spectre/v10_0_2/lpmos/models/mos/pe3lni_5.scs
Reading file:  /opt/pdk/xfab/XKIT/xh018/cadence/v10_0/spectre/v10_0_2/lpmos/models/mos/pe3lni_m_5.scs
Reading file:  /opt/pdk/xfab/XKIT/xh018/cadence/v10_0/spectre/v10_0_2/lpmos/models/mos/nd3.scs
Reading file:  /opt/pdk/xfab/XKIT/xh018/cadence/v10_0/spectre/v10_0_2/lpmos/models/mos/nd3_mos1.scs
Reading file:  /opt/pdk/xfab/XKIT/xh018/cadence/v10_0/spectre/v10_0_2/lpmos/models/mos/nd3_mos2.scs
Reading file:  /opt/pdk/xfab/XKIT/xh018/cadence/v10_0/spectre/v10_0_2/lpmos/models/mos/nd3i.scs
Reading file:  /opt/pdk/xfab/XKIT/xh018/cadence/v10_0/spectre/v10_0_2/lpmos/models/mos/nd3i_mos1.scs
Reading file:  /opt/pdk/xfab/XKIT/xh018/cadence/v10_0/spectre/v10_0_2/lpmos/models/mos/nd3i_mos2.scs
Reading file:  /opt/pdk/xfab/XKIT/xh018/cadence/v10_0/spectre/v10_0_2/lpmos/models/mos/nd3i_6.scs
Reading file:  /opt/pdk/xfab/XKIT/xh018/cadence/v10_0/spectre/v10_0_2/lpmos/models/mos/nd3i_m_6.scs
Reading file:  /opt/pdk/xfab/XKIT/xh018/cadence/v10_0/spectre/v10_0_2/lpmos/models/mos/nelna.scs
Reading file:  /opt/pdk/xfab/XKIT/xh018/cadence/v10_0/spectre/v10_0_2/lpmos/models/mos/nelnai.scs
Reading file:  /opt/pdk/xfab/XKIT/xh018/cadence/v10_0/spectre/v10_0_2/lpmos/models/mos/nelnai_6.scs
Reading file:  /opt/pdk/xfab/XKIT/xh018/cadence/v10_0/spectre/v10_0_2/lpmos/models/mos/nelnai_m_6.scs
Reading file:  /opt/pdk/xfab/XKIT/xh018/cadence/v10_0/spectre/v10_0_2/lpmos/models/mos/ne3lna.scs
Reading file:  /opt/pdk/xfab/XKIT/xh018/cadence/v10_0/spectre/v10_0_2/lpmos/models/mos/ne3lnai.scs
Reading file:  /opt/pdk/xfab/XKIT/xh018/cadence/v10_0/spectre/v10_0_2/lpmos/models/mos/ne3lnai_6.scs
Reading file:  /opt/pdk/xfab/XKIT/xh018/cadence/v10_0/spectre/v10_0_2/lpmos/models/mos/ne3lnai_m_6.scs
Reading file:  /opt/pdk/xfab/XKIT/xh018/cadence/v10_0/spectre/v10_0_2/lpmos/models/mos/pe3lna.scs
Reading file:  /opt/pdk/xfab/XKIT/xh018/cadence/v10_0/spectre/v10_0_2/lpmos/models/mos/pe3lna_5.scs
Reading file:  /opt/pdk/xfab/XKIT/xh018/cadence/v10_0/spectre/v10_0_2/lpmos/models/mos/pe3lnai.scs
Reading file:  /opt/pdk/xfab/XKIT/xh018/cadence/v10_0/spectre/v10_0_2/lpmos/models/mos/pe3lnai_5.scs
Reading file:  /opt/pdk/xfab/XKIT/xh018/cadence/v10_0/spectre/v10_0_2/lpmos/models/mos/pe3lnai_m_5.scs
Reading file:  /opt/pdk/xfab/XKIT/xh018/cadence/v10_0/spectre/v10_0_2/lpmos/models/mos/nmma.scs
Reading file:  /opt/pdk/xfab/XKIT/xh018/cadence/v10_0/spectre/v10_0_2/lpmos/models/mos/jf_nmma.scs
Reading file:  /opt/pdk/xfab/XKIT/xh018/cadence/v10_0/spectre/v10_0_2/lpmos/models/mos/nmma_bjt.scs
Reading file:  /opt/pdk/xfab/XKIT/xh018/cadence/v10_0/spectre/v10_0_2/lpmos/models/mos/pmma.scs
Reading file:  /opt/pdk/xfab/XKIT/xh018/cadence/v10_0/spectre/v10_0_2/lpmos/models/mos/jf_pmma.scs
Reading file:  /opt/pdk/xfab/XKIT/xh018/cadence/v10_0/spectre/v10_0_2/lpmos/models/mos/pmma_bjt.scs
Reading file:  /opt/pdk/xfab/XKIT/xh018/cadence/v10_0/spectre/v10_0_2/lpmos/models/mos/nedi.scs
Reading file:  /opt/pdk/xfab/XKIT/xh018/cadence/v10_0/spectre/v10_0_2/lpmos/models/mos/nedi_bjt.scs
Reading file:  /opt/pdk/xfab/XKIT/xh018/cadence/v10_0/spectre/v10_0_2/lpmos/models/mos/nedia.scs
Reading file:  /opt/pdk/xfab/XKIT/xh018/cadence/v10_0/spectre/v10_0_2/lpmos/models/mos/nedia_bjt.scs
Reading file:  /opt/pdk/xfab/XKIT/xh018/cadence/v10_0/spectre/v10_0_2/lpmos/models/mos/ped2.scs
Reading file:  /opt/pdk/xfab/XKIT/xh018/cadence/v10_0/spectre/v10_0_2/lpmos/models/mos/ped2_bjt.scs
Reading file:  /opt/pdk/xfab/XKIT/xh018/cadence/v10_0/spectre/v10_0_2/lpmos/models/mos/ped.scs
Reading file:  /opt/pdk/xfab/XKIT/xh018/cadence/v10_0/spectre/v10_0_2/lpmos/models/mos/ped_bjt.scs
Reading file:  /opt/pdk/xfab/XKIT/xh018/cadence/v10_0/spectre/v10_0_2/lpmos/models/mos/nhv.scs
Reading file:  /opt/pdk/xfab/XKIT/xh018/cadence/v10_0/spectre/v10_0_2/lpmos/models/mos/nhv_mos2.scs
Reading file:  /opt/pdk/xfab/XKIT/xh018/cadence/v10_0/spectre/v10_0_2/lpmos/models/mos/nhv_bjt.scs
Reading file:  /opt/pdk/xfab/XKIT/xh018/cadence/v10_0/spectre/v10_0_2/lpmos/models/mos/nhhv.scs
Reading file:  /opt/pdk/xfab/XKIT/xh018/cadence/v10_0/spectre/v10_0_2/lpmos/models/mos/nhhv_mos2.scs
Reading file:  /opt/pdk/xfab/XKIT/xh018/cadence/v10_0/spectre/v10_0_2/lpmos/models/mos/nhhv_bjt.scs
Reading file:  /opt/pdk/xfab/XKIT/xh018/cadence/v10_0/spectre/v10_0_2/lpmos/models/mos/nmmc.scs
Reading file:  /opt/pdk/xfab/XKIT/xh018/cadence/v10_0/spectre/v10_0_2/lpmos/models/mos/nmmc_mos2.scs
Reading file:  /opt/pdk/xfab/XKIT/xh018/cadence/v10_0/spectre/v10_0_2/lpmos/models/mos/nmmc_bjt.scs
Reading file:  /opt/pdk/xfab/XKIT/xh018/cadence/v10_0/spectre/v10_0_2/lpmos/models/mos/nmmd.scs
Reading file:  /opt/pdk/xfab/XKIT/xh018/cadence/v10_0/spectre/v10_0_2/lpmos/models/mos/nmmd_mos2.scs
Reading file:  /opt/pdk/xfab/XKIT/xh018/cadence/v10_0/spectre/v10_0_2/lpmos/models/mos/nmmd_bjt.scs
Reading file:  /opt/pdk/xfab/XKIT/xh018/cadence/v10_0/spectre/v10_0_2/lpmos/models/mos/nmc.scs
Reading file:  /opt/pdk/xfab/XKIT/xh018/cadence/v10_0/spectre/v10_0_2/lpmos/models/mos/nmc_mos2.scs
Reading file:  /opt/pdk/xfab/XKIT/xh018/cadence/v10_0/spectre/v10_0_2/lpmos/models/mos/nmc_bjt.scs
Reading file:  /opt/pdk/xfab/XKIT/xh018/cadence/v10_0/spectre/v10_0_2/lpmos/models/mos/nma.scs
Reading file:  /opt/pdk/xfab/XKIT/xh018/cadence/v10_0/spectre/v10_0_2/lpmos/models/mos/nma_bjt.scs
Reading file:  /opt/pdk/xfab/XKIT/xh018/cadence/v10_0/spectre/v10_0_2/lpmos/models/mos/phv.scs
Reading file:  /opt/pdk/xfab/XKIT/xh018/cadence/v10_0/spectre/v10_0_2/lpmos/models/mos/phv_mos2.scs
Reading file:  /opt/pdk/xfab/XKIT/xh018/cadence/v10_0/spectre/v10_0_2/lpmos/models/mos/phv_bjt.scs
Reading file:  /opt/pdk/xfab/XKIT/xh018/cadence/v10_0/spectre/v10_0_2/lpmos/models/mos/phhv.scs
Reading file:  /opt/pdk/xfab/XKIT/xh018/cadence/v10_0/spectre/v10_0_2/lpmos/models/mos/phhv_mos2.scs
Reading file:  /opt/pdk/xfab/XKIT/xh018/cadence/v10_0/spectre/v10_0_2/lpmos/models/mos/phhv_bjt.scs
Reading file:  /opt/pdk/xfab/XKIT/xh018/cadence/v10_0/spectre/v10_0_2/lpmos/models/mos/pmc.scs
Reading file:  /opt/pdk/xfab/XKIT/xh018/cadence/v10_0/spectre/v10_0_2/lpmos/models/mos/pmc_mos2.scs
Reading file:  /opt/pdk/xfab/XKIT/xh018/cadence/v10_0/spectre/v10_0_2/lpmos/models/mos/pmc_bjt.scs
Reading file:  /opt/pdk/xfab/XKIT/xh018/cadence/v10_0/spectre/v10_0_2/lpmos/models/mos/pmmc.scs
Reading file:  /opt/pdk/xfab/XKIT/xh018/cadence/v10_0/spectre/v10_0_2/lpmos/models/mos/pmmc_mos2.scs
Reading file:  /opt/pdk/xfab/XKIT/xh018/cadence/v10_0/spectre/v10_0_2/lpmos/models/mos/pmmc_bjt.scs
Reading file:  /opt/pdk/xfab/XKIT/xh018/cadence/v10_0/spectre/v10_0_2/lpmos/models/mos/pma.scs
Reading file:  /opt/pdk/xfab/XKIT/xh018/cadence/v10_0/spectre/v10_0_2/lpmos/models/mos/pma_bjt.scs
Reading file:  /opt/pdk/xfab/XKIT/xh018/cadence/v10_0/spectre/v10_0_2/lpmos/models/mos/pmb.scs
Reading file:  /opt/pdk/xfab/XKIT/xh018/cadence/v10_0/spectre/v10_0_2/lpmos/models/mos/nesvt.scs
Reading file:  /opt/pdk/xfab/XKIT/xh018/cadence/v10_0/spectre/v10_0_2/lpmos/models/mos/nesvti.scs
Reading file:  /opt/pdk/xfab/XKIT/xh018/cadence/v10_0/spectre/v10_0_2/lpmos/models/mos/nesvti_6.scs
Reading file:  /opt/pdk/xfab/XKIT/xh018/cadence/v10_0/spectre/v10_0_2/lpmos/models/mos/nesvti_m_6.scs
Reading file:  /opt/pdk/xfab/XKIT/xh018/cadence/v10_0/spectre/v10_0_2/lpmos/models/mos/pesvt.scs
Reading file:  /opt/pdk/xfab/XKIT/xh018/cadence/v10_0/spectre/v10_0_2/lpmos/models/mos/pesvt_5.scs
Reading file:  /opt/pdk/xfab/XKIT/xh018/cadence/v10_0/spectre/v10_0_2/lpmos/models/mos/pesvti.scs
Reading file:  /opt/pdk/xfab/XKIT/xh018/cadence/v10_0/spectre/v10_0_2/lpmos/models/mos/pesvti_5.scs
Reading file:  /opt/pdk/xfab/XKIT/xh018/cadence/v10_0/spectre/v10_0_2/lpmos/models/mos/pesvti_m_5.scs
Reading file:  /opt/pdk/xfab/XKIT/xh018/cadence/v10_0/spectre/v10_0_2/lpmos/models/mos/nhvd.scs
Reading file:  /opt/pdk/xfab/XKIT/xh018/cadence/v10_0/spectre/v10_0_2/lpmos/models/mos/nhvd_bjt.scs
Reading file:  /opt/pdk/xfab/XKIT/xh018/cadence/v10_0/spectre/v10_0_2/lpmos/models/mos/nhhvd.scs
Reading file:  /opt/pdk/xfab/XKIT/xh018/cadence/v10_0/spectre/v10_0_2/lpmos/models/mos/nhhvd_bjt.scs
Reading file:  /opt/pdk/xfab/XKIT/xh018/cadence/v10_0/spectre/v10_0_2/lpmos/photo.scs
Reading file:  /opt/pdk/xfab/XKIT/xh018/cadence/v10_0/spectre/v10_0_2/lpmos/models/photo/tm_pho.scs
Reading file:  /opt/pdk/xfab/XKIT/xh018/cadence/v10_0/spectre/v10_0_2/lpmos/models/photo/dphoa.scs
Reading file:  /opt/pdk/xfab/XKIT/xh018/cadence/v10_0/spectre/v10_0_2/lpmos/models/photo/dpho.va
Reading link:  /opt/tools/cadence/installs/SPECTRE241/tools.lnx86/spectre/etc/ahdl/discipline.h
Reading file:  /opt/tools/cadence/installs/SPECTRE241/tools.lnx86/spectre/etc/ahdl/disciplines.vams
Reading link:  /opt/tools/cadence/installs/SPECTRE241/tools.lnx86/spectre/etc/ahdl/constants.h
Reading file:  /opt/tools/cadence/installs/SPECTRE241/tools.lnx86/spectre/etc/ahdl/constants.vams
Reading file:  /opt/pdk/xfab/XKIT/xh018/cadence/v10_0/spectre/v10_0_2/lpmos/models/photo/dphob.scs
Reading file:  /opt/pdk/xfab/XKIT/xh018/cadence/v10_0/spectre/v10_0_2/lpmos/models/photo/dphoc.scs
Reading file:  /opt/pdk/xfab/XKIT/xh018/cadence/v10_0/spectre/v10_0_2/lpmos/models/photo/iphoto_uv.va
Reading file:  /opt/pdk/xfab/XKIT/xh018/cadence/v10_0/spectre/v10_0_2/lpmos/models/photo/dphoc_cat.scs
Reading file:  /opt/pdk/xfab/XKIT/xh018/cadence/v10_0/spectre/v10_0_2/lpmos/models/photo/dphoc0.scs
Reading file:  /opt/pdk/xfab/XKIT/xh018/cadence/v10_0/spectre/v10_0_2/lpmos/models/photo/dphoc0_cat.scs
Reading file:  /opt/pdk/xfab/XKIT/xh018/cadence/v10_0/spectre/v10_0_2/lpmos/models/photo/dphocfp.scs
Reading file:  /opt/pdk/xfab/XKIT/xh018/cadence/v10_0/spectre/v10_0_2/lpmos/models/photo/dphocfp_cat.scs
Reading file:  /opt/pdk/xfab/XKIT/xh018/cadence/v10_0/spectre/v10_0_2/lpmos/models/photo/dphod.scs
Reading file:  /opt/pdk/xfab/XKIT/xh018/cadence/v10_0/spectre/v10_0_2/lpmos/models/photo/dphod_an1.scs
Reading file:  /opt/pdk/xfab/XKIT/xh018/cadence/v10_0/spectre/v10_0_2/lpmos/models/photo/dphod_an2.scs
Reading file:  /opt/pdk/xfab/XKIT/xh018/cadence/v10_0/spectre/v10_0_2/lpmos/models/photo/dphod0.scs
Reading file:  /opt/pdk/xfab/XKIT/xh018/cadence/v10_0/spectre/v10_0_2/lpmos/models/photo/dphod0_an1.scs
Reading file:  /opt/pdk/xfab/XKIT/xh018/cadence/v10_0/spectre/v10_0_2/lpmos/models/photo/dphod0_an2.scs
Reading file:  /opt/pdk/xfab/XKIT/xh018/cadence/v10_0/spectre/v10_0_2/lpmos/models/photo/dphodfp.scs
Reading file:  /opt/pdk/xfab/XKIT/xh018/cadence/v10_0/spectre/v10_0_2/lpmos/models/photo/dphodfp_an1.scs
Reading file:  /opt/pdk/xfab/XKIT/xh018/cadence/v10_0/spectre/v10_0_2/lpmos/models/photo/dphodfp_an2.scs
Reading file:  /opt/pdk/xfab/XKIT/xh018/cadence/v10_0/spectre/v10_0_2/lpmos/models/photo/dspada0.scs
Reading file:  /opt/pdk/xfab/XKIT/xh018/cadence/v10_0/spectre/v10_0_2/lpmos/models/photo/ispad.va
Reading file:  /opt/pdk/xfab/XKIT/xh018/cadence/v10_0/spectre/v10_0_2/lpmos/models/photo/dapb.scs
Reading file:  /opt/pdk/xfab/XKIT/xh018/cadence/v10_0/spectre/v10_0_2/lpmos/models/photo/iphoto_apd_trig.va
Reading file:  /opt/pdk/xfab/XKIT/xh018/cadence/v10_0/spectre/v10_0_2/lpmos/models/photo/dapb_jun.scs
Reading file:  /opt/pdk/xfab/XKIT/xh018/cadence/v10_0/spectre/v10_0_2/lpmos/models/photo/dapb_trig.scs
Reading file:  /opt/pdk/xfab/XKIT/xh018/cadence/v10_0/spectre/v10_0_2/lpmos/models/photo/dapb0.scs
Reading file:  /opt/pdk/xfab/XKIT/xh018/cadence/v10_0/spectre/v10_0_2/lpmos/models/photo/dapb0_jun.scs
Reading file:  /opt/pdk/xfab/XKIT/xh018/cadence/v10_0/spectre/v10_0_2/lpmos/models/photo/dspb.scs
Reading file:  /opt/pdk/xfab/XKIT/xh018/cadence/v10_0/spectre/v10_0_2/lpmos/models/photo/ispad_trig.va
Reading file:  /opt/pdk/xfab/XKIT/xh018/cadence/v10_0/spectre/v10_0_2/lpmos/models/photo/dspb_jun.scs
Reading file:  /opt/pdk/xfab/XKIT/xh018/cadence/v10_0/spectre/v10_0_2/lpmos/models/photo/dspb_trig.scs
Reading file:  /opt/pdk/xfab/XKIT/xh018/cadence/v10_0/spectre/v10_0_2/lpmos/models/photo/dspb0.scs
Reading file:  /opt/pdk/xfab/XKIT/xh018/cadence/v10_0/spectre/v10_0_2/lpmos/models/photo/dspb0_jun.scs
Reading file:  /opt/pdk/xfab/XKIT/xh018/cadence/v10_0/spectre/v10_0_2/lpmos/models/photo/dspbfep.scs
Reading file:  /opt/pdk/xfab/XKIT/xh018/cadence/v10_0/spectre/v10_0_2/lpmos/models/photo/dapda.scs
Reading file:  /opt/pdk/xfab/XKIT/xh018/cadence/v10_0/spectre/v10_0_2/lpmos/models/photo/iphoto_apd.va
Reading file:  /opt/pdk/xfab/XKIT/xh018/cadence/v10_0/spectre/v10_0_2/lpmos/models/photo/dapda_cat.scs
Reading file:  /opt/pdk/xfab/XKIT/xh018/cadence/v10_0/spectre/v10_0_2/lpmos/models/photo/dapda0.scs
Reading file:  /opt/pdk/xfab/XKIT/xh018/cadence/v10_0/spectre/v10_0_2/lpmos/models/photo/dspada.scs
Reading file:  /opt/pdk/xfab/XKIT/xh018/cadence/v10_0/spectre/v10_0_2/lpmos/models/photo/dspada_cat.scs
Reading file:  /opt/pdk/xfab/XKIT/xh018/cadence/v10_0/spectre/v10_0_2/lpmos/res.scs
Reading file:  /opt/pdk/xfab/XKIT/xh018/cadence/v10_0/spectre/v10_0_2/lpmos/models/res/tm_res.scs
Reading file:  /opt/pdk/xfab/XKIT/xh018/cadence/v10_0/spectre/v10_0_2/lpmos/models/res/rdn.scs
Reading file:  /opt/pdk/xfab/XKIT/xh018/cadence/v10_0/spectre/v10_0_2/lpmos/models/res/rdn_esd.scs
Reading file:  /opt/pdk/xfab/XKIT/xh018/cadence/v10_0/spectre/v10_0_2/lpmos/models/res/rdp.scs
Reading file:  /opt/pdk/xfab/XKIT/xh018/cadence/v10_0/spectre/v10_0_2/lpmos/models/res/rdp_io.scs
Reading file:  /opt/pdk/xfab/XKIT/xh018/cadence/v10_0/spectre/v10_0_2/lpmos/models/res/rdp_esd.scs
Reading file:  /opt/pdk/xfab/XKIT/xh018/cadence/v10_0/spectre/v10_0_2/lpmos/models/res/rnw.scs
Reading file:  /opt/pdk/xfab/XKIT/xh018/cadence/v10_0/spectre/v10_0_2/lpmos/models/res/rnw_scr.scs
Reading file:  /opt/pdk/xfab/XKIT/xh018/cadence/v10_0/spectre/v10_0_2/lpmos/models/res/rdn3.scs
Reading file:  /opt/pdk/xfab/XKIT/xh018/cadence/v10_0/spectre/v10_0_2/lpmos/models/res/rdp3.scs
Reading file:  /opt/pdk/xfab/XKIT/xh018/cadence/v10_0/spectre/v10_0_2/lpmos/models/res/rnw3.scs
Reading file:  /opt/pdk/xfab/XKIT/xh018/cadence/v10_0/spectre/v10_0_2/lpmos/models/res/rnw3_scr.scs
Reading file:  /opt/pdk/xfab/XKIT/xh018/cadence/v10_0/spectre/v10_0_2/lpmos/models/res/rdnwmv.scs
Reading file:  /opt/pdk/xfab/XKIT/xh018/cadence/v10_0/spectre/v10_0_2/lpmos/models/res/rnp1.scs
Reading file:  /opt/pdk/xfab/XKIT/xh018/cadence/v10_0/spectre/v10_0_2/lpmos/models/res/rnp1_3.scs
Reading file:  /opt/pdk/xfab/XKIT/xh018/cadence/v10_0/spectre/v10_0_2/lpmos/models/res/rpp1.scs
Reading file:  /opt/pdk/xfab/XKIT/xh018/cadence/v10_0/spectre/v10_0_2/lpmos/models/res/rpp1_3.scs
Reading file:  /opt/pdk/xfab/XKIT/xh018/cadence/v10_0/spectre/v10_0_2/lpmos/models/res/rpp1s.scs
Reading file:  /opt/pdk/xfab/XKIT/xh018/cadence/v10_0/spectre/v10_0_2/lpmos/models/res/rpp1s_3.scs
Reading file:  /opt/pdk/xfab/XKIT/xh018/cadence/v10_0/spectre/v10_0_2/lpmos/models/res/rnp1h.scs
Reading file:  /opt/pdk/xfab/XKIT/xh018/cadence/v10_0/spectre/v10_0_2/lpmos/models/res/rnp1h_3.scs
Reading file:  /opt/pdk/xfab/XKIT/xh018/cadence/v10_0/spectre/v10_0_2/lpmos/models/res/rpp1k1.scs
Reading file:  /opt/pdk/xfab/XKIT/xh018/cadence/v10_0/spectre/v10_0_2/lpmos/models/res/rpp1k1_3.scs
Reading file:  /opt/pdk/xfab/XKIT/xh018/cadence/v10_0/spectre/v10_0_2/lpmos/models/res/rctdn.scs
Reading file:  /opt/pdk/xfab/XKIT/xh018/cadence/v10_0/spectre/v10_0_2/lpmos/models/res/rctdp.scs
Reading file:  /opt/pdk/xfab/XKIT/xh018/cadence/v10_0/spectre/v10_0_2/lpmos/models/res/rctp1.scs
Reading file:  /opt/pdk/xfab/XKIT/xh018/cadence/v10_0/spectre/v10_0_2/lpmos/models/res/rsildn.scs
Reading file:  /opt/pdk/xfab/XKIT/xh018/cadence/v10_0/spectre/v10_0_2/lpmos/models/res/rsildp.scs
Reading file:  /opt/pdk/xfab/XKIT/xh018/cadence/v10_0/spectre/v10_0_2/lpmos/models/res/rsilnp1.scs
Reading file:  /opt/pdk/xfab/XKIT/xh018/cadence/v10_0/spectre/v10_0_2/lpmos/models/res/rsilpp1.scs
Reading file:  /opt/pdk/xfab/XKIT/xh018/cadence/v10_0/spectre/v10_0_2/lpmos/models/res/rsbdn.scs
Reading file:  /opt/pdk/xfab/XKIT/xh018/cadence/v10_0/spectre/v10_0_2/lpmos/models/res/rsbdp.scs
Reading file:  /opt/pdk/xfab/XKIT/xh018/cadence/v10_0/spectre/v10_0_2/lpmos/models/res/rsbdn3.scs
Reading file:  /opt/pdk/xfab/XKIT/xh018/cadence/v10_0/spectre/v10_0_2/lpmos/models/res/rsbdp3.scs
Reading file:  /opt/pdk/xfab/XKIT/xh018/cadence/v10_0/spectre/v10_0_2/lpmos/models/res/rsbnp1.scs
Reading file:  /opt/pdk/xfab/XKIT/xh018/cadence/v10_0/spectre/v10_0_2/lpmos/models/res/rsbpp1.scs
Reading file:  /opt/pdk/xfab/XKIT/xh018/cadence/v10_0/spectre/v10_0_2/lpmos/models/res/rsbpp1k1.scs
Reading file:  /opt/pdk/xfab/XKIT/xh018/cadence/v10_0/spectre/v10_0_2/lpmos/models/res/rm1.scs
Reading file:  /opt/pdk/xfab/XKIT/xh018/cadence/v10_0/spectre/v10_0_2/lpmos/models/res/rm2.scs
Reading file:  /opt/pdk/xfab/XKIT/xh018/cadence/v10_0/spectre/v10_0_2/lpmos/models/res/rm3.scs
Reading file:  /opt/pdk/xfab/XKIT/xh018/cadence/v10_0/spectre/v10_0_2/lpmos/models/res/rm4.scs
Reading file:  /opt/pdk/xfab/XKIT/xh018/cadence/v10_0/spectre/v10_0_2/lpmos/models/res/rm5.scs
Reading file:  /opt/pdk/xfab/XKIT/xh018/cadence/v10_0/spectre/v10_0_2/lpmos/models/res/rmtp.scs
Reading file:  /opt/pdk/xfab/XKIT/xh018/cadence/v10_0/spectre/v10_0_2/lpmos/models/res/rmtpl.scs
Reading file:  /opt/pdk/xfab/XKIT/xh018/cadence/v10_0/spectre/v10_0_2/lpmos/models/res/pfuse.scs
Reading file:  /opt/pdk/xfab/XKIT/xh018/cadence/v10_0/spectre/v10_0_2/lpmos/models/res/s_res.scs
Time for NDB Parsing: CPU = 259.506 ms, elapsed = 859.458 ms.
Time accumulated: CPU = 414.572 ms, elapsed = 859.46 ms.
Peak resident memory used = 204 Mbytes.

Time for Elaboration: CPU = 12.913 ms, elapsed = 14.277 ms.
Time accumulated: CPU = 427.576 ms, elapsed = 873.886 ms.
Peak resident memory used = 215 Mbytes.


Notice from spectre during hierarchy flattening.
    The value 'psf' specified for the 'checklimitdest' option will no longer be supported in future releases. Use 'spectre -h' to see other recommended values for the 'checklimitdest' option.


Time for EDB Visiting: CPU = 735 us, elapsed = 978.947 us.
Time accumulated: CPU = 428.401 ms, elapsed = 875.007 ms.
Peak resident memory used = 216 Mbytes.


Notice from spectre during initial setup.
    Multithreading is disabled due to the size of the design being too small.


Netlist title:
        // Point Netlist Generated on: Nov 17 11:04:21 2025


Global user options:
         psfversion = 1.4.0
            vabstol = 1e-06
            iabstol = 1e-12
               temp = 27
               gmin = 1e-12
             rforce = 1
           maxnotes = 5
           maxwarns = 5
             digits = 5
               cols = 80
             pivrel = 0.001
           sensfile = ../psf/sens.output
     checklimitdest = psf
               save = allpub
             reltol = 0.001
               tnom = 27
             scalem = 1
              scale = 1

Scoped user options:

Circuit inventory:
              nodes 9
            bsim3v3 3     
          capacitor 1     
            isource 2     
           resistor 3     
            vsource 5     

Analysis and control statement inventory:
                 dc 2     
               info 7     

Output statements:
             .probe 0     
           .measure 0     
               save 0     


Notice from spectre during initial setup.
    APS enabled.

Time for parsing: CPU = 1.972 ms, elapsed = 11.5771 ms.
Time accumulated: CPU = 430.439 ms, elapsed = 886.69 ms.
Peak resident memory used = 220 Mbytes.

~~~~~~~~~~~~~~~~~~~~~~
Pre-Simulation Summary
~~~~~~~~~~~~~~~~~~~~~~
   -   (APS) Multi-threading. The recommended number of threads is 1, consider adding +mt=1 on command line.
~~~~~~~~~~~~~~~~~~~~~~

******************
DC Analysis `dcOp'
******************

Opening the PSF file ../psf/dcOp.dc ...
Important parameter values:
    reltol = 1e-03
    abstol(V) = 1 uV
    abstol(I) = 1 pA
    temp = 27 C
    tnom = 27 C
    tempeffects = all
    gmindc = 1 pS
    rabsshort = 1 mOhm

Maximum value achieved for any signal of each quantity: 
V: V(net3) = 1.8 V
I: I(V1:p) = 172.6 uA
Convergence achieved in 6 iterations.
DC simulation time: CPU = 1.767 ms, elapsed = 6.44016 ms.
Total time required for dc analysis `dcOp': CPU = 1.843 ms, elapsed = 6.56605 ms, util. = 28.1%.
Time accumulated: CPU = 439.823 ms, elapsed = 904.959 ms.
Peak resident memory used = 222 Mbytes.

dcOpInfo: writing operating point information to rawfile.

Opening the PSF file ../psf/dcOpInfo.info ...

**********************************************
DC Analysis `dc': VIN2 = (-900e-03 -> 900e-03)
**********************************************

Opening the PSF file ../psf/dc.dc ...
Important parameter values:
    reltol = 1e-03
    abstol(V) = 1 uV
    abstol(I) = 1 pA
    temp = 27 C
    tnom = 27 C
    tempeffects = all
    gmindc = 1 pS
    rabsshort = 1 mOhm
    dc: VIN2 = -855e-03     (2.5 %), step = 5e-03        (278 m%)
    dc: VIN2 = -850e-03    (2.78 %), step = 5e-03        (278 m%)
    dc: VIN2 = -845e-03    (3.06 %), step = 5e-03        (278 m%)
    dc: VIN2 = -840e-03    (3.33 %), step = 5e-03        (278 m%)
    dc: VIN2 = -835e-03    (3.61 %), step = 5e-03        (278 m%)
    dc: VIN2 = -830e-03    (3.89 %), step = 5e-03        (278 m%)
    dc: VIN2 = -825e-03    (4.17 %), step = 5e-03        (278 m%)
    dc: VIN2 = -820e-03    (4.44 %), step = 5e-03        (278 m%)
    dc: VIN2 = -815e-03    (4.72 %), step = 5e-03        (278 m%)
    dc: VIN2 = -810e-03       (5 %), step = 5e-03        (278 m%)
    dc: VIN2 = -805e-03    (5.28 %), step = 5e-03        (278 m%)
    dc: VIN2 = -800e-03    (5.56 %), step = 5e-03        (278 m%)
    dc: VIN2 = -795e-03    (5.83 %), step = 5e-03        (278 m%)
    dc: VIN2 = -790e-03    (6.11 %), step = 5e-03        (278 m%)
    dc: VIN2 = -785e-03    (6.39 %), step = 5e-03        (278 m%)
    dc: VIN2 = -780e-03    (6.67 %), step = 5e-03        (278 m%)
    dc: VIN2 = -775e-03    (6.94 %), step = 5e-03        (278 m%)
    dc: VIN2 = -770e-03    (7.22 %), step = 5e-03        (278 m%)
    dc: VIN2 = -765e-03     (7.5 %), step = 5e-03        (278 m%)
    dc: VIN2 = -760e-03    (7.78 %), step = 5e-03        (278 m%)
    dc: VIN2 = -755e-03    (8.06 %), step = 5e-03        (278 m%)
    dc: VIN2 = -750e-03    (8.33 %), step = 5e-03        (278 m%)
    dc: VIN2 = -745e-03    (8.61 %), step = 5e-03        (278 m%)
    dc: VIN2 = -740e-03    (8.89 %), step = 5e-03        (278 m%)
    dc: VIN2 = -735e-03    (9.17 %), step = 5e-03        (278 m%)
    dc: VIN2 = -730e-03    (9.44 %), step = 5e-03        (278 m%)
    dc: VIN2 = -725e-03    (9.72 %), step = 5e-03        (278 m%)
    dc: VIN2 = -720e-03      (10 %), step = 5e-03        (278 m%)
    dc: VIN2 = -715e-03    (10.3 %), step = 5e-03        (278 m%)
    dc: VIN2 = -710e-03    (10.6 %), step = 5e-03        (278 m%)
    dc: VIN2 = -705e-03    (10.8 %), step = 5e-03        (278 m%)
    dc: VIN2 = -700e-03    (11.1 %), step = 5e-03        (278 m%)
    dc: VIN2 = -695e-03    (11.4 %), step = 5e-03        (278 m%)
    dc: VIN2 = -690e-03    (11.7 %), step = 5e-03        (278 m%)
    dc: VIN2 = -685e-03    (11.9 %), step = 5e-03        (278 m%)
    dc: VIN2 = -680e-03    (12.2 %), step = 5e-03        (278 m%)
    dc: VIN2 = -675e-03    (12.5 %), step = 5e-03        (278 m%)
    dc: VIN2 = -670e-03    (12.8 %), step = 5e-03        (278 m%)
    dc: VIN2 = -665e-03    (13.1 %), step = 5e-03        (278 m%)
    dc: VIN2 = -660e-03    (13.3 %), step = 5e-03        (278 m%)
    dc: VIN2 = -655e-03    (13.6 %), step = 5e-03        (278 m%)
    dc: VIN2 = -650e-03    (13.9 %), step = 5e-03        (278 m%)
    dc: VIN2 = -645e-03    (14.2 %), step = 5e-03        (278 m%)
    dc: VIN2 = -640e-03    (14.4 %), step = 5e-03        (278 m%)
    dc: VIN2 = -635e-03    (14.7 %), step = 5e-03        (278 m%)
    dc: VIN2 = -630e-03      (15 %), step = 5e-03        (278 m%)
    dc: VIN2 = -625e-03    (15.3 %), step = 5e-03        (278 m%)
    dc: VIN2 = -620e-03    (15.6 %), step = 5e-03        (278 m%)
    dc: VIN2 = -615e-03    (15.8 %), step = 5e-03        (278 m%)
    dc: VIN2 = -610e-03    (16.1 %), step = 5e-03        (278 m%)
    dc: VIN2 = -605e-03    (16.4 %), step = 5e-03        (278 m%)
    dc: VIN2 = -600e-03    (16.7 %), step = 5e-03        (278 m%)
    dc: VIN2 = -595e-03    (16.9 %), step = 5e-03        (278 m%)
    dc: VIN2 = -590e-03    (17.2 %), step = 5e-03        (278 m%)
    dc: VIN2 = -585e-03    (17.5 %), step = 5e-03        (278 m%)
    dc: VIN2 = -580e-03    (17.8 %), step = 5e-03        (278 m%)
    dc: VIN2 = -575e-03    (18.1 %), step = 5e-03        (278 m%)
    dc: VIN2 = -570e-03    (18.3 %), step = 5e-03        (278 m%)
    dc: VIN2 = -565e-03    (18.6 %), step = 5e-03        (278 m%)
    dc: VIN2 = -560e-03    (18.9 %), step = 5e-03        (278 m%)
    dc: VIN2 = -555e-03    (19.2 %), step = 5e-03        (278 m%)
    dc: VIN2 = -550e-03    (19.4 %), step = 5e-03        (278 m%)
    dc: VIN2 = -545e-03    (19.7 %), step = 5e-03        (278 m%)
    dc: VIN2 = -540e-03      (20 %), step = 5e-03        (278 m%)
    dc: VIN2 = -535e-03    (20.3 %), step = 5e-03        (278 m%)
    dc: VIN2 = -530e-03    (20.6 %), step = 5e-03        (278 m%)
    dc: VIN2 = -525e-03    (20.8 %), step = 5e-03        (278 m%)
    dc: VIN2 = -520e-03    (21.1 %), step = 5e-03        (278 m%)
    dc: VIN2 = -515e-03    (21.4 %), step = 5e-03        (278 m%)
    dc: VIN2 = -510e-03    (21.7 %), step = 5e-03        (278 m%)
    dc: VIN2 = -505e-03    (21.9 %), step = 5e-03        (278 m%)
    dc: VIN2 = -500e-03    (22.2 %), step = 5e-03        (278 m%)
    dc: VIN2 = -495e-03    (22.5 %), step = 5e-03        (278 m%)
    dc: VIN2 = -490e-03    (22.8 %), step = 5e-03        (278 m%)
    dc: VIN2 = -485e-03    (23.1 %), step = 5e-03        (278 m%)
    dc: VIN2 = -480e-03    (23.3 %), step = 5e-03        (278 m%)
    dc: VIN2 = -475e-03    (23.6 %), step = 5e-03        (278 m%)
    dc: VIN2 = -470e-03    (23.9 %), step = 5e-03        (278 m%)
    dc: VIN2 = -465e-03    (24.2 %), step = 5e-03        (278 m%)
    dc: VIN2 = -460e-03    (24.4 %), step = 5e-03        (278 m%)
    dc: VIN2 = -455e-03    (24.7 %), step = 5e-03        (278 m%)
    dc: VIN2 = -450e-03      (25 %), step = 5e-03        (278 m%)
    dc: VIN2 = -445e-03    (25.3 %), step = 5e-03        (278 m%)
    dc: VIN2 = -440e-03    (25.6 %), step = 5e-03        (278 m%)
    dc: VIN2 = -435e-03    (25.8 %), step = 5e-03        (278 m%)
    dc: VIN2 = -430e-03    (26.1 %), step = 5e-03        (278 m%)
    dc: VIN2 = -425e-03    (26.4 %), step = 5e-03        (278 m%)
    dc: VIN2 = -420e-03    (26.7 %), step = 5e-03        (278 m%)
    dc: VIN2 = -415e-03    (26.9 %), step = 5e-03        (278 m%)
    dc: VIN2 = -410e-03    (27.2 %), step = 5e-03        (278 m%)
    dc: VIN2 = -405e-03    (27.5 %), step = 5e-03        (278 m%)
    dc: VIN2 = -400e-03    (27.8 %), step = 5e-03        (278 m%)
    dc: VIN2 = -395e-03    (28.1 %), step = 5e-03        (278 m%)
    dc: VIN2 = -390e-03    (28.3 %), step = 5e-03        (278 m%)
    dc: VIN2 = -385e-03    (28.6 %), step = 5e-03        (278 m%)
    dc: VIN2 = -380e-03    (28.9 %), step = 5e-03        (278 m%)
    dc: VIN2 = -375e-03    (29.2 %), step = 5e-03        (278 m%)
    dc: VIN2 = -370e-03    (29.4 %), step = 5e-03        (278 m%)
    dc: VIN2 = -365e-03    (29.7 %), step = 5e-03        (278 m%)
    dc: VIN2 = -360e-03      (30 %), step = 5e-03        (278 m%)
    dc: VIN2 = -355e-03    (30.3 %), step = 5e-03        (278 m%)
    dc: VIN2 = -350e-03    (30.6 %), step = 5e-03        (278 m%)
    dc: VIN2 = -345e-03    (30.8 %), step = 5e-03        (278 m%)
    dc: VIN2 = -340e-03    (31.1 %), step = 5e-03        (278 m%)
    dc: VIN2 = -335e-03    (31.4 %), step = 5e-03        (278 m%)
    dc: VIN2 = -330e-03    (31.7 %), step = 5e-03        (278 m%)
    dc: VIN2 = -325e-03    (31.9 %), step = 5e-03        (278 m%)
    dc: VIN2 = -320e-03    (32.2 %), step = 5e-03        (278 m%)
    dc: VIN2 = -315e-03    (32.5 %), step = 5e-03        (278 m%)
    dc: VIN2 = -310e-03    (32.8 %), step = 5e-03        (278 m%)
    dc: VIN2 = -305e-03    (33.1 %), step = 5e-03        (278 m%)
    dc: VIN2 = -300e-03    (33.3 %), step = 5e-03        (278 m%)
    dc: VIN2 = -295e-03    (33.6 %), step = 5e-03        (278 m%)
    dc: VIN2 = -290e-03    (33.9 %), step = 5e-03        (278 m%)
    dc: VIN2 = -285e-03    (34.2 %), step = 5e-03        (278 m%)
    dc: VIN2 = -280e-03    (34.4 %), step = 5e-03        (278 m%)
    dc: VIN2 = -275e-03    (34.7 %), step = 5e-03        (278 m%)
    dc: VIN2 = -270e-03      (35 %), step = 5e-03        (278 m%)
    dc: VIN2 = -265e-03    (35.3 %), step = 5e-03        (278 m%)
    dc: VIN2 = -260e-03    (35.6 %), step = 5e-03        (278 m%)
    dc: VIN2 = -255e-03    (35.8 %), step = 5e-03        (278 m%)
    dc: VIN2 = -250e-03    (36.1 %), step = 5e-03        (278 m%)
    dc: VIN2 = -245e-03    (36.4 %), step = 5e-03        (278 m%)
    dc: VIN2 = -240e-03    (36.7 %), step = 5e-03        (278 m%)
    dc: VIN2 = -235e-03    (36.9 %), step = 5e-03        (278 m%)
    dc: VIN2 = -230e-03    (37.2 %), step = 5e-03        (278 m%)
    dc: VIN2 = -225e-03    (37.5 %), step = 5e-03        (278 m%)
    dc: VIN2 = -220e-03    (37.8 %), step = 5e-03        (278 m%)
    dc: VIN2 = -215e-03    (38.1 %), step = 5e-03        (278 m%)
    dc: VIN2 = -210e-03    (38.3 %), step = 5e-03        (278 m%)
    dc: VIN2 = -205e-03    (38.6 %), step = 5e-03        (278 m%)
    dc: VIN2 = -200e-03    (38.9 %), step = 5e-03        (278 m%)
    dc: VIN2 = -195e-03    (39.2 %), step = 5e-03        (278 m%)
    dc: VIN2 = -190e-03    (39.4 %), step = 5e-03        (278 m%)
    dc: VIN2 = -185e-03    (39.7 %), step = 5e-03        (278 m%)
    dc: VIN2 = -180e-03      (40 %), step = 5e-03        (278 m%)
    dc: VIN2 = -175e-03    (40.3 %), step = 5e-03        (278 m%)
    dc: VIN2 = -170e-03    (40.6 %), step = 5e-03        (278 m%)
    dc: VIN2 = -165e-03    (40.8 %), step = 5e-03        (278 m%)
    dc: VIN2 = -160e-03    (41.1 %), step = 5e-03        (278 m%)
    dc: VIN2 = -155e-03    (41.4 %), step = 5e-03        (278 m%)
    dc: VIN2 = -150e-03    (41.7 %), step = 5e-03        (278 m%)
    dc: VIN2 = -145e-03    (41.9 %), step = 5e-03        (278 m%)
    dc: VIN2 = -140e-03    (42.2 %), step = 5e-03        (278 m%)
    dc: VIN2 = -135e-03    (42.5 %), step = 5e-03        (278 m%)
    dc: VIN2 = -130e-03    (42.8 %), step = 5e-03        (278 m%)
    dc: VIN2 = -125e-03    (43.1 %), step = 5e-03        (278 m%)
    dc: VIN2 = -120e-03    (43.3 %), step = 5e-03        (278 m%)
    dc: VIN2 = -115e-03    (43.6 %), step = 5e-03        (278 m%)
    dc: VIN2 = -110e-03    (43.9 %), step = 5e-03        (278 m%)
    dc: VIN2 = -105e-03    (44.2 %), step = 5e-03        (278 m%)
    dc: VIN2 = -100e-03    (44.4 %), step = 5e-03        (278 m%)
    dc: VIN2 = -95e-03     (44.7 %), step = 5e-03        (278 m%)
    dc: VIN2 = -90e-03       (45 %), step = 5e-03        (278 m%)
    dc: VIN2 = -85e-03     (45.3 %), step = 5e-03        (278 m%)
    dc: VIN2 = -80e-03     (45.6 %), step = 5e-03        (278 m%)
    dc: VIN2 = -75e-03     (45.8 %), step = 5e-03        (278 m%)
    dc: VIN2 = -70e-03     (46.1 %), step = 5e-03        (278 m%)
    dc: VIN2 = -65e-03     (46.4 %), step = 5e-03        (278 m%)
    dc: VIN2 = -60e-03     (46.7 %), step = 5e-03        (278 m%)
    dc: VIN2 = -55e-03     (46.9 %), step = 5e-03        (278 m%)
    dc: VIN2 = -50e-03     (47.2 %), step = 5e-03        (278 m%)
    dc: VIN2 = -45e-03     (47.5 %), step = 5e-03        (278 m%)
    dc: VIN2 = -40e-03     (47.8 %), step = 5e-03        (278 m%)
    dc: VIN2 = -35e-03     (48.1 %), step = 5e-03        (278 m%)
    dc: VIN2 = -30e-03     (48.3 %), step = 5e-03        (278 m%)
    dc: VIN2 = -25e-03     (48.6 %), step = 5e-03        (278 m%)
    dc: VIN2 = -20e-03     (48.9 %), step = 5e-03        (278 m%)
    dc: VIN2 = -15e-03     (49.2 %), step = 5e-03        (278 m%)
    dc: VIN2 = -10e-03     (49.4 %), step = 5e-03        (278 m%)
    dc: VIN2 = -5e-03      (49.7 %), step = 5e-03        (278 m%)
    dc: VIN2 = 0             (50 %), step = 5e-03        (278 m%)
    dc: VIN2 = 5e-03       (50.3 %), step = 5e-03        (278 m%)
    dc: VIN2 = 10e-03      (50.6 %), step = 5e-03        (278 m%)
    dc: VIN2 = 15e-03      (50.8 %), step = 5e-03        (278 m%)
    dc: VIN2 = 20e-03      (51.1 %), step = 5e-03        (278 m%)
    dc: VIN2 = 25e-03      (51.4 %), step = 5e-03        (278 m%)
    dc: VIN2 = 30e-03      (51.7 %), step = 5e-03        (278 m%)
    dc: VIN2 = 35e-03      (51.9 %), step = 5e-03        (278 m%)
    dc: VIN2 = 40e-03      (52.2 %), step = 5e-03        (278 m%)
    dc: VIN2 = 45e-03      (52.5 %), step = 5e-03        (278 m%)
    dc: VIN2 = 50e-03      (52.8 %), step = 5e-03        (278 m%)
    dc: VIN2 = 55e-03      (53.1 %), step = 5e-03        (278 m%)
    dc: VIN2 = 60e-03      (53.3 %), step = 5e-03        (278 m%)
    dc: VIN2 = 65e-03      (53.6 %), step = 5e-03        (278 m%)
    dc: VIN2 = 70e-03      (53.9 %), step = 5e-03        (278 m%)
    dc: VIN2 = 75e-03      (54.2 %), step = 5e-03        (278 m%)
    dc: VIN2 = 80e-03      (54.4 %), step = 5e-03        (278 m%)
    dc: VIN2 = 85e-03      (54.7 %), step = 5e-03        (278 m%)
    dc: VIN2 = 90e-03        (55 %), step = 5e-03        (278 m%)
    dc: VIN2 = 95e-03      (55.3 %), step = 5e-03        (278 m%)
    dc: VIN2 = 100e-03     (55.6 %), step = 5e-03        (278 m%)
    dc: VIN2 = 105e-03     (55.8 %), step = 5e-03        (278 m%)
    dc: VIN2 = 110e-03     (56.1 %), step = 5e-03        (278 m%)
    dc: VIN2 = 115e-03     (56.4 %), step = 5e-03        (278 m%)
    dc: VIN2 = 120e-03     (56.7 %), step = 5e-03        (278 m%)
    dc: VIN2 = 125e-03     (56.9 %), step = 5e-03        (278 m%)
    dc: VIN2 = 130e-03     (57.2 %), step = 5e-03        (278 m%)
    dc: VIN2 = 135e-03     (57.5 %), step = 5e-03        (278 m%)
    dc: VIN2 = 140e-03     (57.8 %), step = 5e-03        (278 m%)
    dc: VIN2 = 145e-03     (58.1 %), step = 5e-03        (278 m%)
    dc: VIN2 = 150e-03     (58.3 %), step = 5e-03        (278 m%)
    dc: VIN2 = 155e-03     (58.6 %), step = 5e-03        (278 m%)
    dc: VIN2 = 160e-03     (58.9 %), step = 5e-03        (278 m%)
    dc: VIN2 = 165e-03     (59.2 %), step = 5e-03        (278 m%)
    dc: VIN2 = 170e-03     (59.4 %), step = 5e-03        (278 m%)
    dc: VIN2 = 175e-03     (59.7 %), step = 5e-03        (278 m%)
    dc: VIN2 = 180e-03       (60 %), step = 5e-03        (278 m%)
    dc: VIN2 = 185e-03     (60.3 %), step = 5e-03        (278 m%)
    dc: VIN2 = 190e-03     (60.6 %), step = 5e-03        (278 m%)
    dc: VIN2 = 195e-03     (60.8 %), step = 5e-03        (278 m%)
    dc: VIN2 = 200e-03     (61.1 %), step = 5e-03        (278 m%)
    dc: VIN2 = 205e-03     (61.4 %), step = 5e-03        (278 m%)
    dc: VIN2 = 210e-03     (61.7 %), step = 5e-03        (278 m%)
    dc: VIN2 = 215e-03     (61.9 %), step = 5e-03        (278 m%)
    dc: VIN2 = 220e-03     (62.2 %), step = 5e-03        (278 m%)
    dc: VIN2 = 225e-03     (62.5 %), step = 5e-03        (278 m%)
    dc: VIN2 = 230e-03     (62.8 %), step = 5e-03        (278 m%)
    dc: VIN2 = 235e-03     (63.1 %), step = 5e-03        (278 m%)
    dc: VIN2 = 240e-03     (63.3 %), step = 5e-03        (278 m%)
    dc: VIN2 = 245e-03     (63.6 %), step = 5e-03        (278 m%)
    dc: VIN2 = 250e-03     (63.9 %), step = 5e-03        (278 m%)
    dc: VIN2 = 255e-03     (64.2 %), step = 5e-03        (278 m%)
    dc: VIN2 = 260e-03     (64.4 %), step = 5e-03        (278 m%)
    dc: VIN2 = 265e-03     (64.7 %), step = 5e-03        (278 m%)
    dc: VIN2 = 270e-03       (65 %), step = 5e-03        (278 m%)
    dc: VIN2 = 275e-03     (65.3 %), step = 5e-03        (278 m%)
    dc: VIN2 = 280e-03     (65.6 %), step = 5e-03        (278 m%)
    dc: VIN2 = 285e-03     (65.8 %), step = 5e-03        (278 m%)
    dc: VIN2 = 290e-03     (66.1 %), step = 5e-03        (278 m%)
    dc: VIN2 = 295e-03     (66.4 %), step = 5e-03        (278 m%)
    dc: VIN2 = 300e-03     (66.7 %), step = 5e-03        (278 m%)
    dc: VIN2 = 305e-03     (66.9 %), step = 5e-03        (278 m%)
    dc: VIN2 = 310e-03     (67.2 %), step = 5e-03        (278 m%)
    dc: VIN2 = 315e-03     (67.5 %), step = 5e-03        (278 m%)
    dc: VIN2 = 320e-03     (67.8 %), step = 5e-03        (278 m%)
    dc: VIN2 = 325e-03     (68.1 %), step = 5e-03        (278 m%)
    dc: VIN2 = 330e-03     (68.3 %), step = 5e-03        (278 m%)
    dc: VIN2 = 335e-03     (68.6 %), step = 5e-03        (278 m%)
    dc: VIN2 = 340e-03     (68.9 %), step = 5e-03        (278 m%)
    dc: VIN2 = 345e-03     (69.2 %), step = 5e-03        (278 m%)
    dc: VIN2 = 350e-03     (69.4 %), step = 5e-03        (278 m%)
    dc: VIN2 = 355e-03     (69.7 %), step = 5e-03        (278 m%)
    dc: VIN2 = 360e-03       (70 %), step = 5e-03        (278 m%)
    dc: VIN2 = 365e-03     (70.3 %), step = 5e-03        (278 m%)
    dc: VIN2 = 370e-03     (70.6 %), step = 5e-03        (278 m%)
    dc: VIN2 = 375e-03     (70.8 %), step = 5e-03        (278 m%)
    dc: VIN2 = 380e-03     (71.1 %), step = 5e-03        (278 m%)
    dc: VIN2 = 385e-03     (71.4 %), step = 5e-03        (278 m%)
    dc: VIN2 = 390e-03     (71.7 %), step = 5e-03        (278 m%)
    dc: VIN2 = 395e-03     (71.9 %), step = 5e-03        (278 m%)
    dc: VIN2 = 400e-03     (72.2 %), step = 5e-03        (278 m%)
    dc: VIN2 = 405e-03     (72.5 %), step = 5e-03        (278 m%)
    dc: VIN2 = 410e-03     (72.8 %), step = 5e-03        (278 m%)
    dc: VIN2 = 415e-03     (73.1 %), step = 5e-03        (278 m%)
    dc: VIN2 = 420e-03     (73.3 %), step = 5e-03        (278 m%)
    dc: VIN2 = 425e-03     (73.6 %), step = 5e-03        (278 m%)
    dc: VIN2 = 430e-03     (73.9 %), step = 5e-03        (278 m%)
    dc: VIN2 = 435e-03     (74.2 %), step = 5e-03        (278 m%)
    dc: VIN2 = 440e-03     (74.4 %), step = 5e-03        (278 m%)
    dc: VIN2 = 445e-03     (74.7 %), step = 5e-03        (278 m%)
    dc: VIN2 = 450e-03       (75 %), step = 5e-03        (278 m%)
    dc: VIN2 = 455e-03     (75.3 %), step = 5e-03        (278 m%)
    dc: VIN2 = 460e-03     (75.6 %), step = 5e-03        (278 m%)
    dc: VIN2 = 465e-03     (75.8 %), step = 5e-03        (278 m%)
    dc: VIN2 = 470e-03     (76.1 %), step = 5e-03        (278 m%)
    dc: VIN2 = 475e-03     (76.4 %), step = 5e-03        (278 m%)
    dc: VIN2 = 480e-03     (76.7 %), step = 5e-03        (278 m%)
    dc: VIN2 = 485e-03     (76.9 %), step = 5e-03        (278 m%)
    dc: VIN2 = 490e-03     (77.2 %), step = 5e-03        (278 m%)
    dc: VIN2 = 495e-03     (77.5 %), step = 5e-03        (278 m%)
    dc: VIN2 = 500e-03     (77.8 %), step = 5e-03        (278 m%)
    dc: VIN2 = 505e-03     (78.1 %), step = 5e-03        (278 m%)
    dc: VIN2 = 510e-03     (78.3 %), step = 5e-03        (278 m%)
    dc: VIN2 = 515e-03     (78.6 %), step = 5e-03        (278 m%)
    dc: VIN2 = 520e-03     (78.9 %), step = 5e-03        (278 m%)
    dc: VIN2 = 525e-03     (79.2 %), step = 5e-03        (278 m%)
    dc: VIN2 = 530e-03     (79.4 %), step = 5e-03        (278 m%)
    dc: VIN2 = 535e-03     (79.7 %), step = 5e-03        (278 m%)
    dc: VIN2 = 540e-03       (80 %), step = 5e-03        (278 m%)
    dc: VIN2 = 545e-03     (80.3 %), step = 5e-03        (278 m%)
    dc: VIN2 = 550e-03     (80.6 %), step = 5e-03        (278 m%)
    dc: VIN2 = 555e-03     (80.8 %), step = 5e-03        (278 m%)
    dc: VIN2 = 560e-03     (81.1 %), step = 5e-03        (278 m%)
    dc: VIN2 = 565e-03     (81.4 %), step = 5e-03        (278 m%)
    dc: VIN2 = 570e-03     (81.7 %), step = 5e-03        (278 m%)
    dc: VIN2 = 575e-03     (81.9 %), step = 5e-03        (278 m%)
    dc: VIN2 = 580e-03     (82.2 %), step = 5e-03        (278 m%)
    dc: VIN2 = 585e-03     (82.5 %), step = 5e-03        (278 m%)
    dc: VIN2 = 590e-03     (82.8 %), step = 5e-03        (278 m%)
    dc: VIN2 = 595e-03     (83.1 %), step = 5e-03        (278 m%)
    dc: VIN2 = 600e-03     (83.3 %), step = 5e-03        (278 m%)
    dc: VIN2 = 605e-03     (83.6 %), step = 5e-03        (278 m%)
    dc: VIN2 = 610e-03     (83.9 %), step = 5e-03        (278 m%)
    dc: VIN2 = 615e-03     (84.2 %), step = 5e-03        (278 m%)
    dc: VIN2 = 620e-03     (84.4 %), step = 5e-03        (278 m%)
    dc: VIN2 = 625e-03     (84.7 %), step = 5e-03        (278 m%)
    dc: VIN2 = 630e-03       (85 %), step = 5e-03        (278 m%)
    dc: VIN2 = 635e-03     (85.3 %), step = 5e-03        (278 m%)
    dc: VIN2 = 640e-03     (85.6 %), step = 5e-03        (278 m%)
    dc: VIN2 = 645e-03     (85.8 %), step = 5e-03        (278 m%)
    dc: VIN2 = 650e-03     (86.1 %), step = 5e-03        (278 m%)
    dc: VIN2 = 655e-03     (86.4 %), step = 5e-03        (278 m%)
    dc: VIN2 = 660e-03     (86.7 %), step = 5e-03        (278 m%)
    dc: VIN2 = 665e-03     (86.9 %), step = 5e-03        (278 m%)
    dc: VIN2 = 670e-03     (87.2 %), step = 5e-03        (278 m%)
    dc: VIN2 = 675e-03     (87.5 %), step = 5e-03        (278 m%)
    dc: VIN2 = 680e-03     (87.8 %), step = 5e-03        (278 m%)
    dc: VIN2 = 685e-03     (88.1 %), step = 5e-03        (278 m%)
    dc: VIN2 = 690e-03     (88.3 %), step = 5e-03        (278 m%)
    dc: VIN2 = 695e-03     (88.6 %), step = 5e-03        (278 m%)
    dc: VIN2 = 700e-03     (88.9 %), step = 5e-03        (278 m%)
    dc: VIN2 = 705e-03     (89.2 %), step = 5e-03        (278 m%)
    dc: VIN2 = 710e-03     (89.4 %), step = 5e-03        (278 m%)
    dc: VIN2 = 715e-03     (89.7 %), step = 5e-03        (278 m%)
    dc: VIN2 = 720e-03       (90 %), step = 5e-03        (278 m%)
    dc: VIN2 = 725e-03     (90.3 %), step = 5e-03        (278 m%)
    dc: VIN2 = 730e-03     (90.6 %), step = 5e-03        (278 m%)
    dc: VIN2 = 735e-03     (90.8 %), step = 5e-03        (278 m%)
    dc: VIN2 = 740e-03     (91.1 %), step = 5e-03        (278 m%)
    dc: VIN2 = 745e-03     (91.4 %), step = 5e-03        (278 m%)
    dc: VIN2 = 750e-03     (91.7 %), step = 5e-03        (278 m%)
    dc: VIN2 = 755e-03     (91.9 %), step = 5e-03        (278 m%)
    dc: VIN2 = 760e-03     (92.2 %), step = 5e-03        (278 m%)
    dc: VIN2 = 765e-03     (92.5 %), step = 5e-03        (278 m%)
    dc: VIN2 = 770e-03     (92.8 %), step = 5e-03        (278 m%)
    dc: VIN2 = 775e-03     (93.1 %), step = 5e-03        (278 m%)
    dc: VIN2 = 780e-03     (93.3 %), step = 5e-03        (278 m%)
    dc: VIN2 = 785e-03     (93.6 %), step = 5e-03        (278 m%)
    dc: VIN2 = 790e-03     (93.9 %), step = 5e-03        (278 m%)
    dc: VIN2 = 795e-03     (94.2 %), step = 5e-03        (278 m%)
    dc: VIN2 = 800e-03     (94.4 %), step = 5e-03        (278 m%)
    dc: VIN2 = 805e-03     (94.7 %), step = 5e-03        (278 m%)
    dc: VIN2 = 810e-03       (95 %), step = 5e-03        (278 m%)
    dc: VIN2 = 815e-03     (95.3 %), step = 5e-03        (278 m%)
    dc: VIN2 = 820e-03     (95.6 %), step = 5e-03        (278 m%)
    dc: VIN2 = 825e-03     (95.8 %), step = 5e-03        (278 m%)
    dc: VIN2 = 830e-03     (96.1 %), step = 5e-03        (278 m%)
    dc: VIN2 = 835e-03     (96.4 %), step = 5e-03        (278 m%)
    dc: VIN2 = 840e-03     (96.7 %), step = 5e-03        (278 m%)
    dc: VIN2 = 845e-03     (96.9 %), step = 5e-03        (278 m%)
    dc: VIN2 = 850e-03     (97.2 %), step = 5e-03        (278 m%)
    dc: VIN2 = 855e-03     (97.5 %), step = 5e-03        (278 m%)
    dc: VIN2 = 860e-03     (97.8 %), step = 5e-03        (278 m%)
    dc: VIN2 = 865e-03     (98.1 %), step = 5e-03        (278 m%)
    dc: VIN2 = 870e-03     (98.3 %), step = 5e-03        (278 m%)
    dc: VIN2 = 875e-03     (98.6 %), step = 5e-03        (278 m%)
    dc: VIN2 = 880e-03     (98.9 %), step = 5e-03        (278 m%)
    dc: VIN2 = 885e-03     (99.2 %), step = 5e-03        (278 m%)
    dc: VIN2 = 890e-03     (99.4 %), step = 5e-03        (278 m%)
    dc: VIN2 = 895e-03     (99.7 %), step = 5e-03        (278 m%)
    dc: VIN2 = 900e-03      (100 %), step = 5e-03        (278 m%)

Maximum value achieved for any signal of each quantity: 
V: V(net3) = 1.8 V
I: I(V1:p) = 172.5 uA
DC simulation time: CPU = 28.58 ms, elapsed = 38.6281 ms.

Notice from spectre at VIN2 = 900e-03 during DC analysis `dc'.
    The value of parameter 'VIN2' has been reset to the original value 0.

Total time required for dc analysis `dc': CPU = 28.611 ms, elapsed = 38.661 ms, util. = 74%.
Time accumulated: CPU = 470.086 ms, elapsed = 957.481 ms.
Peak resident memory used = 223 Mbytes.

modelParameter: writing model parameter values to rawfile.

Opening the PSF file ../psf/modelParameter.info ...
element: writing instance parameter values to rawfile.

Opening the PSF file ../psf/element.info ...
outputParameter: writing output parameter values to rawfile.

Opening the PSF file ../psf/outputParameter.info ...
designParamVals: writing netlist parameters to rawfile.

Opening the PSFASCII file ../psf/designParamVals.info ...
primitives: writing primitives to rawfile.

Opening the PSFASCII file ../psf/primitives.info.primitives ...
subckts: writing subcircuits to rawfile.

Opening the PSFASCII file ../psf/subckts.info.subckts ...
Licensing Information:
Lic Summary:
[11:04:24.466267] Cdslmd servers:3000@lic08.ug.kth.se
[11:04:24.466315] Feature usage summary:
[11:04:24.466315] Virtuoso_Multi_mode_Simulation


Aggregate audit (11:04:24 AM, Mon Nov 17, 2025):
Time used: CPU = 483 ms, elapsed = 1.02 s, util. = 47.5%.
Time spent in licensing: elapsed = 282 ms, percentage of total = 27.7%.
Peak memory used = 225 Mbytes.
Simulation started at: 11:04:23 AM, Mon Nov 17, 2025, ended at: 11:04:24 AM, Mon Nov 17, 2025, with elapsed time (wall clock): 1.02 s.
spectre completes with 0 errors, 0 warnings, and 5 notices.


********* LOG ENDS **************
**                             **
