
Spectre (R) Circuit Simulator
Version 24.1.0.288.isr5 64bit -- 3 Apr 2025
Copyright (C) 1989-2025 Cadence Design Systems, Inc. All rights reserved worldwide. Cadence and Spectre are registered trademarks of Cadence Design Systems, Inc. All others are the property of their respective holders.

Includes RSA BSAFE(R) Cryptographic or Security Protocol Software from RSA Security, Inc.

User: saul   Host: edatools   HostID: 11AC0200   PID: 28831
Memory  available: 24.6207 GB  physical: 27.3104 GB
Linux   : Rocky Linux release 8.10 (Green Obsidian)
CPU Type: 11th Gen Intel(R) Core(TM) i7-11700K @ 3.60GHz
All processors running at 3600.0 MHz
        Socket: Processors
        0:       0,  1,  2,  3,  4,  5,  6,  7,  8,  9
                10, 11, 12, 13, 14, 15
        
System load averages (1min, 5min, 15min) : 4.9 %, 5.1 %, 5.3 %
HPC is enabled


Simulating `input.scs' on edatools at 12:25:15 PM, Fri Nov 21, 2025 (process id: 28831).
Current working directory: /home/saul/projects/FIL3601/Sim/Shunt_bias8/spectre/schematic/netlist
Command line:
    /opt/tools/cadence/installs/SPECTRE241/tools/bin/spectre -64  \
        input.scs +escchars +log ../psf/spectre.out -format psfxl -raw  \
        ../psf +aps +mt +lqtimeout 900 -maxw 5 -maxn 5 -env ade  \
        +adespetkn=adespe

Licensing Information:
[12:25:15.188801] Configured Lic search path (24.01-s002): 3000@lic08.ug.kth.se

Licensing Information:
[12:25:15.368321] Periodic Lic check successful

Loading /opt/tools/cadence/installs/SPECTRE241/tools.lnx86/cmi/lib/64bit/5.0/libinfineon_sh.so ...
Loading /opt/tools/cadence/installs/SPECTRE241/tools.lnx86/cmi/lib/64bit/5.0/libphilips_I_sh.so ...
Loading /opt/tools/cadence/installs/SPECTRE241/tools.lnx86/cmi/lib/64bit/5.0/libphilips_sh.so ...
Loading /opt/tools/cadence/installs/SPECTRE241/tools.lnx86/cmi/lib/64bit/5.0/libsparam_sh.so ...
Loading /opt/tools/cadence/installs/SPECTRE241/tools.lnx86/cmi/lib/64bit/5.0/libstmodels_sh.so ...
Reading file:  /home/saul/projects/FIL3601/Sim/Shunt_bias8/spectre/schematic/netlist/input.scs
Reading file:  /opt/tools/cadence/installs/SPECTRE241/tools.lnx86/spectre/etc/configs/spectre.cfg
Reading file:  /opt/pdk/xfab/XKIT/xh018/cadence/v10_0/spectre/v10_0_2/lpmos/config.scs
Reading file:  /opt/pdk/xfab/XKIT/xh018/cadence/v10_0/spectre/v10_0_2/lpmos/param.scs
Reading file:  /opt/pdk/xfab/XKIT/xh018/cadence/v10_0/spectre/v10_0_2/lpmos/bip.scs
Reading file:  /opt/pdk/xfab/XKIT/xh018/cadence/v10_0/spectre/v10_0_2/lpmos/models/bip/tm_bip.scs
Reading file:  /opt/pdk/xfab/XKIT/xh018/cadence/v10_0/spectre/v10_0_2/lpmos/models/bip/qpva.scs
Reading file:  /opt/pdk/xfab/XKIT/xh018/cadence/v10_0/spectre/v10_0_2/lpmos/models/bip/qpvb.scs
Reading file:  /opt/pdk/xfab/XKIT/xh018/cadence/v10_0/spectre/v10_0_2/lpmos/models/bip/qpvc.scs
Reading file:  /opt/pdk/xfab/XKIT/xh018/cadence/v10_0/spectre/v10_0_2/lpmos/models/bip/qpva3.scs
Reading file:  /opt/pdk/xfab/XKIT/xh018/cadence/v10_0/spectre/v10_0_2/lpmos/models/bip/qpvb3.scs
Reading file:  /opt/pdk/xfab/XKIT/xh018/cadence/v10_0/spectre/v10_0_2/lpmos/models/bip/qpvc3.scs
Reading file:  /opt/pdk/xfab/XKIT/xh018/cadence/v10_0/spectre/v10_0_2/lpmos/models/bip/qnva.scs
Reading file:  /opt/pdk/xfab/XKIT/xh018/cadence/v10_0/spectre/v10_0_2/lpmos/models/bip/qnvb.scs
Reading file:  /opt/pdk/xfab/XKIT/xh018/cadence/v10_0/spectre/v10_0_2/lpmos/models/bip/qnvba.scs
Reading file:  /opt/pdk/xfab/XKIT/xh018/cadence/v10_0/spectre/v10_0_2/lpmos/models/bip/qnvbb.scs
Reading file:  /opt/pdk/xfab/XKIT/xh018/cadence/v10_0/spectre/v10_0_2/lpmos/models/bip/qnvc.scs
Reading file:  /opt/pdk/xfab/XKIT/xh018/cadence/v10_0/spectre/v10_0_2/lpmos/models/bip/qnvca.scs
Reading file:  /opt/pdk/xfab/XKIT/xh018/cadence/v10_0/spectre/v10_0_2/lpmos/models/bip/qnvcb.scs
Reading file:  /opt/pdk/xfab/XKIT/xh018/cadence/v10_0/spectre/v10_0_2/lpmos/models/bip/qpvhscr.scs
Reading file:  /opt/pdk/xfab/XKIT/xh018/cadence/v10_0/spectre/v10_0_2/lpmos/models/bip/qpvascr.scs
Reading file:  /opt/pdk/xfab/XKIT/xh018/cadence/v10_0/spectre/v10_0_2/lpmos/models/bip/qpvhbscr.scs
Reading file:  /opt/pdk/xfab/XKIT/xh018/cadence/v10_0/spectre/v10_0_2/lpmos/models/bip/qpv_pa.scs
Reading file:  /opt/pdk/xfab/XKIT/xh018/cadence/v10_0/spectre/v10_0_2/lpmos/models/bip/qpv_pb.scs
Reading file:  /opt/pdk/xfab/XKIT/xh018/cadence/v10_0/spectre/v10_0_2/lpmos/models/bip/qpv_pc.scs
Reading file:  /opt/pdk/xfab/XKIT/xh018/cadence/v10_0/spectre/v10_0_2/lpmos/models/bip/qpv_pd.scs
Reading file:  /opt/pdk/xfab/XKIT/xh018/cadence/v10_0/spectre/v10_0_2/lpmos/models/bip/qpv_pe.scs
Reading file:  /opt/pdk/xfab/XKIT/xh018/cadence/v10_0/spectre/v10_0_2/lpmos/models/bip/qpv_pf.scs
Reading file:  /opt/pdk/xfab/XKIT/xh018/cadence/v10_0/spectre/v10_0_2/lpmos/models/bip/qpl_pa.scs
Reading file:  /opt/pdk/xfab/XKIT/xh018/cadence/v10_0/spectre/v10_0_2/lpmos/models/bip/qpl_pb.scs
Reading file:  /opt/pdk/xfab/XKIT/xh018/cadence/v10_0/spectre/v10_0_2/lpmos/models/bip/qpl_pc.scs
Reading file:  /opt/pdk/xfab/XKIT/xh018/cadence/v10_0/spectre/v10_0_2/lpmos/models/bip/qpl_pd.scs
Reading file:  /opt/pdk/xfab/XKIT/xh018/cadence/v10_0/spectre/v10_0_2/lpmos/models/bip/qpl_pe.scs
Reading file:  /opt/pdk/xfab/XKIT/xh018/cadence/v10_0/spectre/v10_0_2/lpmos/models/bip/qpl_pf.scs
Reading file:  /opt/pdk/xfab/XKIT/xh018/cadence/v10_0/spectre/v10_0_2/lpmos/models/bip/qnl_pa.scs
Reading file:  /opt/pdk/xfab/XKIT/xh018/cadence/v10_0/spectre/v10_0_2/lpmos/models/bip/qnl_pb.scs
Reading file:  /opt/pdk/xfab/XKIT/xh018/cadence/v10_0/spectre/v10_0_2/lpmos/models/bip/qnl_pc.scs
Reading file:  /opt/pdk/xfab/XKIT/xh018/cadence/v10_0/spectre/v10_0_2/lpmos/models/bip/qnl_pd.scs
Reading file:  /opt/pdk/xfab/XKIT/xh018/cadence/v10_0/spectre/v10_0_2/lpmos/models/bip/qnl_pe.scs
Reading file:  /opt/pdk/xfab/XKIT/xh018/cadence/v10_0/spectre/v10_0_2/lpmos/models/bip/qnl_pf.scs
Reading file:  /opt/pdk/xfab/XKIT/xh018/cadence/v10_0/spectre/v10_0_2/lpmos/cap.scs
Reading file:  /opt/pdk/xfab/XKIT/xh018/cadence/v10_0/spectre/v10_0_2/lpmos/models/cap/tm_cap.scs
Reading file:  /opt/pdk/xfab/XKIT/xh018/cadence/v10_0/spectre/v10_0_2/lpmos/models/cap/csandwt3.scs
Reading file:  /opt/pdk/xfab/XKIT/xh018/cadence/v10_0/spectre/v10_0_2/lpmos/models/cap/csandwt4.scs
Reading file:  /opt/pdk/xfab/XKIT/xh018/cadence/v10_0/spectre/v10_0_2/lpmos/models/cap/csandwt5.scs
Reading file:  /opt/pdk/xfab/XKIT/xh018/cadence/v10_0/spectre/v10_0_2/lpmos/models/cap/csf2p.scs
Reading file:  /opt/pdk/xfab/XKIT/xh018/cadence/v10_0/spectre/v10_0_2/lpmos/models/cap/csf3p.scs
Reading file:  /opt/pdk/xfab/XKIT/xh018/cadence/v10_0/spectre/v10_0_2/lpmos/models/cap/csf3.scs
Reading file:  /opt/pdk/xfab/XKIT/xh018/cadence/v10_0/spectre/v10_0_2/lpmos/models/cap/csf4.scs
Reading file:  /opt/pdk/xfab/XKIT/xh018/cadence/v10_0/spectre/v10_0_2/lpmos/models/cap/csf5.scs
Reading file:  /opt/pdk/xfab/XKIT/xh018/cadence/v10_0/spectre/v10_0_2/lpmos/models/cap/csft4.scs
Reading file:  /opt/pdk/xfab/XKIT/xh018/cadence/v10_0/spectre/v10_0_2/lpmos/models/cap/csft5.scs
Reading file:  /opt/pdk/xfab/XKIT/xh018/cadence/v10_0/spectre/v10_0_2/lpmos/models/cap/csft6.scs
Reading file:  /opt/pdk/xfab/XKIT/xh018/cadence/v10_0/spectre/v10_0_2/lpmos/models/cap/csf3a.scs
Reading file:  /opt/pdk/xfab/XKIT/xh018/cadence/v10_0/spectre/v10_0_2/lpmos/models/cap/csf4a.scs
Reading file:  /opt/pdk/xfab/XKIT/xh018/cadence/v10_0/spectre/v10_0_2/lpmos/models/cap/csf5a.scs
Reading file:  /opt/pdk/xfab/XKIT/xh018/cadence/v10_0/spectre/v10_0_2/lpmos/models/cap/csft4a.scs
Reading file:  /opt/pdk/xfab/XKIT/xh018/cadence/v10_0/spectre/v10_0_2/lpmos/models/cap/csft5a.scs
Reading file:  /opt/pdk/xfab/XKIT/xh018/cadence/v10_0/spectre/v10_0_2/lpmos/models/cap/csft6a.scs
Reading file:  /opt/pdk/xfab/XKIT/xh018/cadence/v10_0/spectre/v10_0_2/lpmos/models/cap/cif3a.scs
Reading file:  /opt/pdk/xfab/XKIT/xh018/cadence/v10_0/spectre/v10_0_2/lpmos/models/cap/cif4a.scs
Reading file:  /opt/pdk/xfab/XKIT/xh018/cadence/v10_0/spectre/v10_0_2/lpmos/models/cap/cif5a.scs
Reading file:  /opt/pdk/xfab/XKIT/xh018/cadence/v10_0/spectre/v10_0_2/lpmos/models/cap/cift4a.scs
Reading file:  /opt/pdk/xfab/XKIT/xh018/cadence/v10_0/spectre/v10_0_2/lpmos/models/cap/cift5a.scs
Reading file:  /opt/pdk/xfab/XKIT/xh018/cadence/v10_0/spectre/v10_0_2/lpmos/models/cap/cift6a.scs
Reading file:  /opt/pdk/xfab/XKIT/xh018/cadence/v10_0/spectre/v10_0_2/lpmos/models/cap/cmm3.scs
Reading file:  /opt/pdk/xfab/XKIT/xh018/cadence/v10_0/spectre/v10_0_2/lpmos/models/cap/cmm4t.scs
Reading file:  /opt/pdk/xfab/XKIT/xh018/cadence/v10_0/spectre/v10_0_2/lpmos/models/cap/cmm4.scs
Reading file:  /opt/pdk/xfab/XKIT/xh018/cadence/v10_0/spectre/v10_0_2/lpmos/models/cap/cmm5t.scs
Reading file:  /opt/pdk/xfab/XKIT/xh018/cadence/v10_0/spectre/v10_0_2/lpmos/models/cap/cmm6t.scs
Reading file:  /opt/pdk/xfab/XKIT/xh018/cadence/v10_0/spectre/v10_0_2/lpmos/models/cap/cdmm4.scs
Reading file:  /opt/pdk/xfab/XKIT/xh018/cadence/v10_0/spectre/v10_0_2/lpmos/models/cap/cdmm4t.scs
Reading file:  /opt/pdk/xfab/XKIT/xh018/cadence/v10_0/spectre/v10_0_2/lpmos/models/cap/ctmm5.scs
Reading file:  /opt/pdk/xfab/XKIT/xh018/cadence/v10_0/spectre/v10_0_2/lpmos/models/cap/ctmm5t.scs
Reading file:  /opt/pdk/xfab/XKIT/xh018/cadence/v10_0/spectre/v10_0_2/lpmos/models/cap/cmmh3.scs
Reading file:  /opt/pdk/xfab/XKIT/xh018/cadence/v10_0/spectre/v10_0_2/lpmos/models/cap/cmmh4t.scs
Reading file:  /opt/pdk/xfab/XKIT/xh018/cadence/v10_0/spectre/v10_0_2/lpmos/models/cap/cmmh4.scs
Reading file:  /opt/pdk/xfab/XKIT/xh018/cadence/v10_0/spectre/v10_0_2/lpmos/models/cap/cmmh5t.scs
Reading file:  /opt/pdk/xfab/XKIT/xh018/cadence/v10_0/spectre/v10_0_2/lpmos/models/cap/cmmh6t.scs
Reading file:  /opt/pdk/xfab/XKIT/xh018/cadence/v10_0/spectre/v10_0_2/lpmos/models/cap/cdmmh4.scs
Reading file:  /opt/pdk/xfab/XKIT/xh018/cadence/v10_0/spectre/v10_0_2/lpmos/models/cap/cdmmh4t.scs
Reading file:  /opt/pdk/xfab/XKIT/xh018/cadence/v10_0/spectre/v10_0_2/lpmos/models/cap/ctmmh5.scs
Reading file:  /opt/pdk/xfab/XKIT/xh018/cadence/v10_0/spectre/v10_0_2/lpmos/models/cap/ctmmh5t.scs
Reading file:  /opt/pdk/xfab/XKIT/xh018/cadence/v10_0/spectre/v10_0_2/lpmos/models/cap/mosvc.scs
Reading file:  /opt/pdk/xfab/XKIT/xh018/cadence/v10_0/spectre/v10_0_2/lpmos/models/cap/mosvc_pmos.scs
Reading file:  /opt/pdk/xfab/XKIT/xh018/cadence/v10_0/spectre/v10_0_2/lpmos/models/cap/mosvci.scs
Reading file:  /opt/pdk/xfab/XKIT/xh018/cadence/v10_0/spectre/v10_0_2/lpmos/models/cap/mosvci_nmos.scs
Reading file:  /opt/pdk/xfab/XKIT/xh018/cadence/v10_0/spectre/v10_0_2/lpmos/models/cap/mosvci_m.scs
Reading file:  /opt/pdk/xfab/XKIT/xh018/cadence/v10_0/spectre/v10_0_2/lpmos/models/cap/mosvc3.scs
Reading file:  /opt/pdk/xfab/XKIT/xh018/cadence/v10_0/spectre/v10_0_2/lpmos/models/cap/mosvc3_pmos.scs
Reading file:  /opt/pdk/xfab/XKIT/xh018/cadence/v10_0/spectre/v10_0_2/lpmos/models/cap/mosvc3i.scs
Reading file:  /opt/pdk/xfab/XKIT/xh018/cadence/v10_0/spectre/v10_0_2/lpmos/models/cap/mosvc3i_nmos.scs
Reading file:  /opt/pdk/xfab/XKIT/xh018/cadence/v10_0/spectre/v10_0_2/lpmos/models/cap/mosvc3i_m.scs
Reading file:  /opt/pdk/xfab/XKIT/xh018/cadence/v10_0/spectre/v10_0_2/lpmos/models/cap/cpod.scs
Reading file:  /opt/pdk/xfab/XKIT/xh018/cadence/v10_0/spectre/v10_0_2/lpmos/models/cap/cpod_i.scs
Reading file:  /opt/pdk/xfab/XKIT/xh018/cadence/v10_0/spectre/v10_0_2/lpmos/models/cap/cpodhv.scs
Reading file:  /opt/pdk/xfab/XKIT/xh018/cadence/v10_0/spectre/v10_0_2/lpmos/models/cap/cpodhv_i.scs
Reading file:  /opt/pdk/xfab/XKIT/xh018/cadence/v10_0/spectre/v10_0_2/lpmos/models/cap/cp1sub.scs
Reading file:  /opt/pdk/xfab/XKIT/xh018/cadence/v10_0/spectre/v10_0_2/lpmos/models/cap/cp1suba.scs
Reading file:  /opt/pdk/xfab/XKIT/xh018/cadence/v10_0/spectre/v10_0_2/lpmos/models/cap/cp1subp.scs
Reading file:  /opt/pdk/xfab/XKIT/xh018/cadence/v10_0/spectre/v10_0_2/lpmos/models/cap/tag_25v.scs
Reading file:  /opt/pdk/xfab/XKIT/xh018/cadence/v10_0/spectre/v10_0_2/lpmos/models/cap/tag_60v.scs
Reading file:  /opt/pdk/xfab/XKIT/xh018/cadence/v10_0/spectre/v10_0_2/lpmos/dio.scs
Reading file:  /opt/pdk/xfab/XKIT/xh018/cadence/v10_0/spectre/v10_0_2/lpmos/models/dio/tm_dio.scs
Reading file:  /opt/pdk/xfab/XKIT/xh018/cadence/v10_0/spectre/v10_0_2/lpmos/models/dio/dn.scs
Reading file:  /opt/pdk/xfab/XKIT/xh018/cadence/v10_0/spectre/v10_0_2/lpmos/models/dio/dp.scs
Reading file:  /opt/pdk/xfab/XKIT/xh018/cadence/v10_0/spectre/v10_0_2/lpmos/models/dio/dnw.scs
Reading file:  /opt/pdk/xfab/XKIT/xh018/cadence/v10_0/spectre/v10_0_2/lpmos/models/dio/dn3.scs
Reading file:  /opt/pdk/xfab/XKIT/xh018/cadence/v10_0/spectre/v10_0_2/lpmos/models/dio/dnn3.scs
Reading file:  /opt/pdk/xfab/XKIT/xh018/cadence/v10_0/spectre/v10_0_2/lpmos/models/dio/dp3.scs
Reading file:  /opt/pdk/xfab/XKIT/xh018/cadence/v10_0/spectre/v10_0_2/lpmos/models/dio/dnw3.scs
Reading file:  /opt/pdk/xfab/XKIT/xh018/cadence/v10_0/spectre/v10_0_2/lpmos/models/dio/ddnwmv.scs
Reading file:  /opt/pdk/xfab/XKIT/xh018/cadence/v10_0/spectre/v10_0_2/lpmos/models/dio/dpdnwmv.scs
Reading file:  /opt/pdk/xfab/XKIT/xh018/cadence/v10_0/spectre/v10_0_2/lpmos/models/dio/dipdnwmv.scs
Reading file:  /opt/pdk/xfab/XKIT/xh018/cadence/v10_0/spectre/v10_0_2/lpmos/models/dio/ddnw.scs
Reading file:  /opt/pdk/xfab/XKIT/xh018/cadence/v10_0/spectre/v10_0_2/lpmos/models/dio/ddnwa.scs
Reading file:  /opt/pdk/xfab/XKIT/xh018/cadence/v10_0/spectre/v10_0_2/lpmos/models/dio/dpdnw.scs
Reading file:  /opt/pdk/xfab/XKIT/xh018/cadence/v10_0/spectre/v10_0_2/lpmos/models/dio/dipdnw.scs
Reading file:  /opt/pdk/xfab/XKIT/xh018/cadence/v10_0/spectre/v10_0_2/lpmos/models/dio/dnhpw.scs
Reading file:  /opt/pdk/xfab/XKIT/xh018/cadence/v10_0/spectre/v10_0_2/lpmos/models/dio/dnhpwa.scs
Reading file:  /opt/pdk/xfab/XKIT/xh018/cadence/v10_0/spectre/v10_0_2/lpmos/models/dio/dphnw.scs
Reading file:  /opt/pdk/xfab/XKIT/xh018/cadence/v10_0/spectre/v10_0_2/lpmos/models/dio/dphnwa.scs
Reading file:  /opt/pdk/xfab/XKIT/xh018/cadence/v10_0/spectre/v10_0_2/lpmos/models/dio/dhpw.scs
Reading file:  /opt/pdk/xfab/XKIT/xh018/cadence/v10_0/spectre/v10_0_2/lpmos/models/dio/dhnw.scs
Reading file:  /opt/pdk/xfab/XKIT/xh018/cadence/v10_0/spectre/v10_0_2/lpmos/models/dio/dndf.scs
Reading file:  /opt/pdk/xfab/XKIT/xh018/cadence/v10_0/spectre/v10_0_2/lpmos/models/dio/dpdwhn.scs
Reading file:  /opt/pdk/xfab/XKIT/xh018/cadence/v10_0/spectre/v10_0_2/lpmos/models/dio/dwhn.scs
Reading file:  /opt/pdk/xfab/XKIT/xh018/cadence/v10_0/spectre/v10_0_2/lpmos/models/dio/dpwhn.scs
Reading file:  /opt/pdk/xfab/XKIT/xh018/cadence/v10_0/spectre/v10_0_2/lpmos/models/dio/dpndf.scs
Reading file:  /opt/pdk/xfab/XKIT/xh018/cadence/v10_0/spectre/v10_0_2/lpmos/models/dio/dpdddnw.scs
Reading file:  /opt/pdk/xfab/XKIT/xh018/cadence/v10_0/spectre/v10_0_2/lpmos/models/dio/ddpldnw.scs
Reading file:  /opt/pdk/xfab/XKIT/xh018/cadence/v10_0/spectre/v10_0_2/lpmos/models/dio/dn3dpl.scs
Reading file:  /opt/pdk/xfab/XKIT/xh018/cadence/v10_0/spectre/v10_0_2/lpmos/models/dio/dbn.scs
Reading file:  /opt/pdk/xfab/XKIT/xh018/cadence/v10_0/spectre/v10_0_2/lpmos/models/dio/dpol.scs
Reading file:  /opt/pdk/xfab/XKIT/xh018/cadence/v10_0/spectre/v10_0_2/lpmos/models/dio/dnpdd_scr.scs
Reading file:  /opt/pdk/xfab/XKIT/xh018/cadence/v10_0/spectre/v10_0_2/lpmos/models/dio/dpdd_scr.scs
Reading file:  /opt/pdk/xfab/XKIT/xh018/cadence/v10_0/spectre/v10_0_2/lpmos/models/dio/dsb.scs
Reading file:  /opt/pdk/xfab/XKIT/xh018/cadence/v10_0/spectre/v10_0_2/lpmos/models/dio/dsba.scs
Reading file:  /opt/pdk/xfab/XKIT/xh018/cadence/v10_0/spectre/v10_0_2/lpmos/models/dio/dsba_qp1.scs
Reading file:  /opt/pdk/xfab/XKIT/xh018/cadence/v10_0/spectre/v10_0_2/lpmos/models/dio/dnp20.scs
Reading file:  /opt/pdk/xfab/XKIT/xh018/cadence/v10_0/spectre/v10_0_2/lpmos/models/dio/dpp20.scs
Reading file:  /opt/pdk/xfab/XKIT/xh018/cadence/v10_0/spectre/v10_0_2/lpmos/models/dio/dn3sci.scs
Reading file:  /opt/pdk/xfab/XKIT/xh018/cadence/v10_0/spectre/v10_0_2/lpmos/models/dio/dscidnwmv.scs
Reading file:  /opt/pdk/xfab/XKIT/xh018/cadence/v10_0/spectre/v10_0_2/lpmos/mos.scs
Reading file:  /opt/pdk/xfab/XKIT/xh018/cadence/v10_0/spectre/v10_0_2/lpmos/models/mos/tm_mos.scs
Reading file:  /opt/pdk/xfab/XKIT/xh018/cadence/v10_0/spectre/v10_0_2/lpmos/models/mos/ne.scs
Reading file:  /opt/pdk/xfab/XKIT/xh018/cadence/v10_0/spectre/v10_0_2/lpmos/models/mos/nei.scs
Reading file:  /opt/pdk/xfab/XKIT/xh018/cadence/v10_0/spectre/v10_0_2/lpmos/models/mos/nei_6.scs
Reading file:  /opt/pdk/xfab/XKIT/xh018/cadence/v10_0/spectre/v10_0_2/lpmos/models/mos/nei_m_6.scs
Reading file:  /opt/pdk/xfab/XKIT/xh018/cadence/v10_0/spectre/v10_0_2/lpmos/models/mos/nei_a_6.scs
Reading file:  /opt/pdk/xfab/XKIT/xh018/cadence/v10_0/spectre/v10_0_2/lpmos/models/mos/pe.scs
Reading file:  /opt/pdk/xfab/XKIT/xh018/cadence/v10_0/spectre/v10_0_2/lpmos/models/mos/pe_5.scs
Reading file:  /opt/pdk/xfab/XKIT/xh018/cadence/v10_0/spectre/v10_0_2/lpmos/models/mos/pei.scs
Reading file:  /opt/pdk/xfab/XKIT/xh018/cadence/v10_0/spectre/v10_0_2/lpmos/models/mos/pei_5.scs
Reading file:  /opt/pdk/xfab/XKIT/xh018/cadence/v10_0/spectre/v10_0_2/lpmos/models/mos/pei_m_5.scs
Reading file:  /opt/pdk/xfab/XKIT/xh018/cadence/v10_0/spectre/v10_0_2/lpmos/models/mos/pei_a_5.scs
Reading file:  /opt/pdk/xfab/XKIT/xh018/cadence/v10_0/spectre/v10_0_2/lpmos/models/mos/nel.scs
Reading file:  /opt/pdk/xfab/XKIT/xh018/cadence/v10_0/spectre/v10_0_2/lpmos/models/mos/neli.scs
Reading file:  /opt/pdk/xfab/XKIT/xh018/cadence/v10_0/spectre/v10_0_2/lpmos/models/mos/neli_6.scs
Reading file:  /opt/pdk/xfab/XKIT/xh018/cadence/v10_0/spectre/v10_0_2/lpmos/models/mos/neli_m_6.scs
Reading file:  /opt/pdk/xfab/XKIT/xh018/cadence/v10_0/spectre/v10_0_2/lpmos/models/mos/pel.scs
Reading file:  /opt/pdk/xfab/XKIT/xh018/cadence/v10_0/spectre/v10_0_2/lpmos/models/mos/pel_5.scs
Reading file:  /opt/pdk/xfab/XKIT/xh018/cadence/v10_0/spectre/v10_0_2/lpmos/models/mos/peli.scs
Reading file:  /opt/pdk/xfab/XKIT/xh018/cadence/v10_0/spectre/v10_0_2/lpmos/models/mos/peli_5.scs
Reading file:  /opt/pdk/xfab/XKIT/xh018/cadence/v10_0/spectre/v10_0_2/lpmos/models/mos/peli_m_5.scs
Reading file:  /opt/pdk/xfab/XKIT/xh018/cadence/v10_0/spectre/v10_0_2/lpmos/models/mos/nn3.scs
Reading file:  /opt/pdk/xfab/XKIT/xh018/cadence/v10_0/spectre/v10_0_2/lpmos/models/mos/ne3.scs
Reading file:  /opt/pdk/xfab/XKIT/xh018/cadence/v10_0/spectre/v10_0_2/lpmos/models/mos/ne3i.scs
Reading file:  /opt/pdk/xfab/XKIT/xh018/cadence/v10_0/spectre/v10_0_2/lpmos/models/mos/ne3i_6.scs
Reading file:  /opt/pdk/xfab/XKIT/xh018/cadence/v10_0/spectre/v10_0_2/lpmos/models/mos/ne3i_m_6.scs
Reading file:  /opt/pdk/xfab/XKIT/xh018/cadence/v10_0/spectre/v10_0_2/lpmos/models/mos/ne3i_a_6.scs
Reading file:  /opt/pdk/xfab/XKIT/xh018/cadence/v10_0/spectre/v10_0_2/lpmos/models/mos/pe3.scs
Reading file:  /opt/pdk/xfab/XKIT/xh018/cadence/v10_0/spectre/v10_0_2/lpmos/models/mos/pe3_5.scs
Reading file:  /opt/pdk/xfab/XKIT/xh018/cadence/v10_0/spectre/v10_0_2/lpmos/models/mos/pe3i.scs
Reading file:  /opt/pdk/xfab/XKIT/xh018/cadence/v10_0/spectre/v10_0_2/lpmos/models/mos/pe3i_5.scs
Reading file:  /opt/pdk/xfab/XKIT/xh018/cadence/v10_0/spectre/v10_0_2/lpmos/models/mos/pe3i_m_5.scs
Reading file:  /opt/pdk/xfab/XKIT/xh018/cadence/v10_0/spectre/v10_0_2/lpmos/models/mos/pe3i_a_5.scs
Reading file:  /opt/pdk/xfab/XKIT/xh018/cadence/v10_0/spectre/v10_0_2/lpmos/models/mos/pe3ln.scs
Reading file:  /opt/pdk/xfab/XKIT/xh018/cadence/v10_0/spectre/v10_0_2/lpmos/models/mos/pe3ln_5.scs
Reading file:  /opt/pdk/xfab/XKIT/xh018/cadence/v10_0/spectre/v10_0_2/lpmos/models/mos/pe3lni.scs
Reading file:  /opt/pdk/xfab/XKIT/xh018/cadence/v10_0/spectre/v10_0_2/lpmos/models/mos/pe3lni_5.scs
Reading file:  /opt/pdk/xfab/XKIT/xh018/cadence/v10_0/spectre/v10_0_2/lpmos/models/mos/pe3lni_m_5.scs
Reading file:  /opt/pdk/xfab/XKIT/xh018/cadence/v10_0/spectre/v10_0_2/lpmos/models/mos/nd3.scs
Reading file:  /opt/pdk/xfab/XKIT/xh018/cadence/v10_0/spectre/v10_0_2/lpmos/models/mos/nd3_mos1.scs
Reading file:  /opt/pdk/xfab/XKIT/xh018/cadence/v10_0/spectre/v10_0_2/lpmos/models/mos/nd3_mos2.scs
Reading file:  /opt/pdk/xfab/XKIT/xh018/cadence/v10_0/spectre/v10_0_2/lpmos/models/mos/nd3i.scs
Reading file:  /opt/pdk/xfab/XKIT/xh018/cadence/v10_0/spectre/v10_0_2/lpmos/models/mos/nd3i_mos1.scs
Reading file:  /opt/pdk/xfab/XKIT/xh018/cadence/v10_0/spectre/v10_0_2/lpmos/models/mos/nd3i_mos2.scs
Reading file:  /opt/pdk/xfab/XKIT/xh018/cadence/v10_0/spectre/v10_0_2/lpmos/models/mos/nd3i_6.scs
Reading file:  /opt/pdk/xfab/XKIT/xh018/cadence/v10_0/spectre/v10_0_2/lpmos/models/mos/nd3i_m_6.scs
Reading file:  /opt/pdk/xfab/XKIT/xh018/cadence/v10_0/spectre/v10_0_2/lpmos/models/mos/nelna.scs
Reading file:  /opt/pdk/xfab/XKIT/xh018/cadence/v10_0/spectre/v10_0_2/lpmos/models/mos/nelnai.scs
Reading file:  /opt/pdk/xfab/XKIT/xh018/cadence/v10_0/spectre/v10_0_2/lpmos/models/mos/nelnai_6.scs
Reading file:  /opt/pdk/xfab/XKIT/xh018/cadence/v10_0/spectre/v10_0_2/lpmos/models/mos/nelnai_m_6.scs
Reading file:  /opt/pdk/xfab/XKIT/xh018/cadence/v10_0/spectre/v10_0_2/lpmos/models/mos/ne3lna.scs
Reading file:  /opt/pdk/xfab/XKIT/xh018/cadence/v10_0/spectre/v10_0_2/lpmos/models/mos/ne3lnai.scs
Reading file:  /opt/pdk/xfab/XKIT/xh018/cadence/v10_0/spectre/v10_0_2/lpmos/models/mos/ne3lnai_6.scs
Reading file:  /opt/pdk/xfab/XKIT/xh018/cadence/v10_0/spectre/v10_0_2/lpmos/models/mos/ne3lnai_m_6.scs
Reading file:  /opt/pdk/xfab/XKIT/xh018/cadence/v10_0/spectre/v10_0_2/lpmos/models/mos/pe3lna.scs
Reading file:  /opt/pdk/xfab/XKIT/xh018/cadence/v10_0/spectre/v10_0_2/lpmos/models/mos/pe3lna_5.scs
Reading file:  /opt/pdk/xfab/XKIT/xh018/cadence/v10_0/spectre/v10_0_2/lpmos/models/mos/pe3lnai.scs
Reading file:  /opt/pdk/xfab/XKIT/xh018/cadence/v10_0/spectre/v10_0_2/lpmos/models/mos/pe3lnai_5.scs
Reading file:  /opt/pdk/xfab/XKIT/xh018/cadence/v10_0/spectre/v10_0_2/lpmos/models/mos/pe3lnai_m_5.scs
Reading file:  /opt/pdk/xfab/XKIT/xh018/cadence/v10_0/spectre/v10_0_2/lpmos/models/mos/nmma.scs
Reading file:  /opt/pdk/xfab/XKIT/xh018/cadence/v10_0/spectre/v10_0_2/lpmos/models/mos/jf_nmma.scs
Reading file:  /opt/pdk/xfab/XKIT/xh018/cadence/v10_0/spectre/v10_0_2/lpmos/models/mos/nmma_bjt.scs
Reading file:  /opt/pdk/xfab/XKIT/xh018/cadence/v10_0/spectre/v10_0_2/lpmos/models/mos/pmma.scs
Reading file:  /opt/pdk/xfab/XKIT/xh018/cadence/v10_0/spectre/v10_0_2/lpmos/models/mos/jf_pmma.scs
Reading file:  /opt/pdk/xfab/XKIT/xh018/cadence/v10_0/spectre/v10_0_2/lpmos/models/mos/pmma_bjt.scs
Reading file:  /opt/pdk/xfab/XKIT/xh018/cadence/v10_0/spectre/v10_0_2/lpmos/models/mos/nedi.scs
Reading file:  /opt/pdk/xfab/XKIT/xh018/cadence/v10_0/spectre/v10_0_2/lpmos/models/mos/nedi_bjt.scs
Reading file:  /opt/pdk/xfab/XKIT/xh018/cadence/v10_0/spectre/v10_0_2/lpmos/models/mos/nedia.scs
Reading file:  /opt/pdk/xfab/XKIT/xh018/cadence/v10_0/spectre/v10_0_2/lpmos/models/mos/nedia_bjt.scs
Reading file:  /opt/pdk/xfab/XKIT/xh018/cadence/v10_0/spectre/v10_0_2/lpmos/models/mos/ped2.scs
Reading file:  /opt/pdk/xfab/XKIT/xh018/cadence/v10_0/spectre/v10_0_2/lpmos/models/mos/ped2_bjt.scs
Reading file:  /opt/pdk/xfab/XKIT/xh018/cadence/v10_0/spectre/v10_0_2/lpmos/models/mos/ped.scs
Reading file:  /opt/pdk/xfab/XKIT/xh018/cadence/v10_0/spectre/v10_0_2/lpmos/models/mos/ped_bjt.scs
Reading file:  /opt/pdk/xfab/XKIT/xh018/cadence/v10_0/spectre/v10_0_2/lpmos/models/mos/nhv.scs
Reading file:  /opt/pdk/xfab/XKIT/xh018/cadence/v10_0/spectre/v10_0_2/lpmos/models/mos/nhv_mos2.scs
Reading file:  /opt/pdk/xfab/XKIT/xh018/cadence/v10_0/spectre/v10_0_2/lpmos/models/mos/nhv_bjt.scs
Reading file:  /opt/pdk/xfab/XKIT/xh018/cadence/v10_0/spectre/v10_0_2/lpmos/models/mos/nhhv.scs
Reading file:  /opt/pdk/xfab/XKIT/xh018/cadence/v10_0/spectre/v10_0_2/lpmos/models/mos/nhhv_mos2.scs
Reading file:  /opt/pdk/xfab/XKIT/xh018/cadence/v10_0/spectre/v10_0_2/lpmos/models/mos/nhhv_bjt.scs
Reading file:  /opt/pdk/xfab/XKIT/xh018/cadence/v10_0/spectre/v10_0_2/lpmos/models/mos/nmmc.scs
Reading file:  /opt/pdk/xfab/XKIT/xh018/cadence/v10_0/spectre/v10_0_2/lpmos/models/mos/nmmc_mos2.scs
Reading file:  /opt/pdk/xfab/XKIT/xh018/cadence/v10_0/spectre/v10_0_2/lpmos/models/mos/nmmc_bjt.scs
Reading file:  /opt/pdk/xfab/XKIT/xh018/cadence/v10_0/spectre/v10_0_2/lpmos/models/mos/nmmd.scs
Reading file:  /opt/pdk/xfab/XKIT/xh018/cadence/v10_0/spectre/v10_0_2/lpmos/models/mos/nmmd_mos2.scs
Reading file:  /opt/pdk/xfab/XKIT/xh018/cadence/v10_0/spectre/v10_0_2/lpmos/models/mos/nmmd_bjt.scs
Reading file:  /opt/pdk/xfab/XKIT/xh018/cadence/v10_0/spectre/v10_0_2/lpmos/models/mos/nmc.scs
Reading file:  /opt/pdk/xfab/XKIT/xh018/cadence/v10_0/spectre/v10_0_2/lpmos/models/mos/nmc_mos2.scs
Reading file:  /opt/pdk/xfab/XKIT/xh018/cadence/v10_0/spectre/v10_0_2/lpmos/models/mos/nmc_bjt.scs
Reading file:  /opt/pdk/xfab/XKIT/xh018/cadence/v10_0/spectre/v10_0_2/lpmos/models/mos/nma.scs
Reading file:  /opt/pdk/xfab/XKIT/xh018/cadence/v10_0/spectre/v10_0_2/lpmos/models/mos/nma_bjt.scs
Reading file:  /opt/pdk/xfab/XKIT/xh018/cadence/v10_0/spectre/v10_0_2/lpmos/models/mos/phv.scs
Reading file:  /opt/pdk/xfab/XKIT/xh018/cadence/v10_0/spectre/v10_0_2/lpmos/models/mos/phv_mos2.scs
Reading file:  /opt/pdk/xfab/XKIT/xh018/cadence/v10_0/spectre/v10_0_2/lpmos/models/mos/phv_bjt.scs
Reading file:  /opt/pdk/xfab/XKIT/xh018/cadence/v10_0/spectre/v10_0_2/lpmos/models/mos/phhv.scs
Reading file:  /opt/pdk/xfab/XKIT/xh018/cadence/v10_0/spectre/v10_0_2/lpmos/models/mos/phhv_mos2.scs
Reading file:  /opt/pdk/xfab/XKIT/xh018/cadence/v10_0/spectre/v10_0_2/lpmos/models/mos/phhv_bjt.scs
Reading file:  /opt/pdk/xfab/XKIT/xh018/cadence/v10_0/spectre/v10_0_2/lpmos/models/mos/pmc.scs
Reading file:  /opt/pdk/xfab/XKIT/xh018/cadence/v10_0/spectre/v10_0_2/lpmos/models/mos/pmc_mos2.scs
Reading file:  /opt/pdk/xfab/XKIT/xh018/cadence/v10_0/spectre/v10_0_2/lpmos/models/mos/pmc_bjt.scs
Reading file:  /opt/pdk/xfab/XKIT/xh018/cadence/v10_0/spectre/v10_0_2/lpmos/models/mos/pmmc.scs
Reading file:  /opt/pdk/xfab/XKIT/xh018/cadence/v10_0/spectre/v10_0_2/lpmos/models/mos/pmmc_mos2.scs
Reading file:  /opt/pdk/xfab/XKIT/xh018/cadence/v10_0/spectre/v10_0_2/lpmos/models/mos/pmmc_bjt.scs
Reading file:  /opt/pdk/xfab/XKIT/xh018/cadence/v10_0/spectre/v10_0_2/lpmos/models/mos/pma.scs
Reading file:  /opt/pdk/xfab/XKIT/xh018/cadence/v10_0/spectre/v10_0_2/lpmos/models/mos/pma_bjt.scs
Reading file:  /opt/pdk/xfab/XKIT/xh018/cadence/v10_0/spectre/v10_0_2/lpmos/models/mos/pmb.scs
Reading file:  /opt/pdk/xfab/XKIT/xh018/cadence/v10_0/spectre/v10_0_2/lpmos/models/mos/nesvt.scs
Reading file:  /opt/pdk/xfab/XKIT/xh018/cadence/v10_0/spectre/v10_0_2/lpmos/models/mos/nesvti.scs
Reading file:  /opt/pdk/xfab/XKIT/xh018/cadence/v10_0/spectre/v10_0_2/lpmos/models/mos/nesvti_6.scs
Reading file:  /opt/pdk/xfab/XKIT/xh018/cadence/v10_0/spectre/v10_0_2/lpmos/models/mos/nesvti_m_6.scs
Reading file:  /opt/pdk/xfab/XKIT/xh018/cadence/v10_0/spectre/v10_0_2/lpmos/models/mos/pesvt.scs
Reading file:  /opt/pdk/xfab/XKIT/xh018/cadence/v10_0/spectre/v10_0_2/lpmos/models/mos/pesvt_5.scs
Reading file:  /opt/pdk/xfab/XKIT/xh018/cadence/v10_0/spectre/v10_0_2/lpmos/models/mos/pesvti.scs
Reading file:  /opt/pdk/xfab/XKIT/xh018/cadence/v10_0/spectre/v10_0_2/lpmos/models/mos/pesvti_5.scs
Reading file:  /opt/pdk/xfab/XKIT/xh018/cadence/v10_0/spectre/v10_0_2/lpmos/models/mos/pesvti_m_5.scs
Reading file:  /opt/pdk/xfab/XKIT/xh018/cadence/v10_0/spectre/v10_0_2/lpmos/models/mos/nhvd.scs
Reading file:  /opt/pdk/xfab/XKIT/xh018/cadence/v10_0/spectre/v10_0_2/lpmos/models/mos/nhvd_bjt.scs
Reading file:  /opt/pdk/xfab/XKIT/xh018/cadence/v10_0/spectre/v10_0_2/lpmos/models/mos/nhhvd.scs
Reading file:  /opt/pdk/xfab/XKIT/xh018/cadence/v10_0/spectre/v10_0_2/lpmos/models/mos/nhhvd_bjt.scs
Reading file:  /opt/pdk/xfab/XKIT/xh018/cadence/v10_0/spectre/v10_0_2/lpmos/photo.scs
Reading file:  /opt/pdk/xfab/XKIT/xh018/cadence/v10_0/spectre/v10_0_2/lpmos/models/photo/tm_pho.scs
Reading file:  /opt/pdk/xfab/XKIT/xh018/cadence/v10_0/spectre/v10_0_2/lpmos/models/photo/dphoa.scs
Reading file:  /opt/pdk/xfab/XKIT/xh018/cadence/v10_0/spectre/v10_0_2/lpmos/models/photo/dpho.va
Reading link:  /opt/tools/cadence/installs/SPECTRE241/tools.lnx86/spectre/etc/ahdl/constants.h
Reading file:  /opt/tools/cadence/installs/SPECTRE241/tools.lnx86/spectre/etc/ahdl/constants.vams
Reading link:  /opt/tools/cadence/installs/SPECTRE241/tools.lnx86/spectre/etc/ahdl/discipline.h
Reading file:  /opt/tools/cadence/installs/SPECTRE241/tools.lnx86/spectre/etc/ahdl/disciplines.vams
Reading file:  /opt/pdk/xfab/XKIT/xh018/cadence/v10_0/spectre/v10_0_2/lpmos/models/photo/dphob.scs
Reading file:  /opt/pdk/xfab/XKIT/xh018/cadence/v10_0/spectre/v10_0_2/lpmos/models/photo/dphoc.scs
Reading file:  /opt/pdk/xfab/XKIT/xh018/cadence/v10_0/spectre/v10_0_2/lpmos/models/photo/iphoto_uv.va
Reading file:  /opt/pdk/xfab/XKIT/xh018/cadence/v10_0/spectre/v10_0_2/lpmos/models/photo/dphoc_cat.scs
Reading file:  /opt/pdk/xfab/XKIT/xh018/cadence/v10_0/spectre/v10_0_2/lpmos/models/photo/dphoc0.scs
Reading file:  /opt/pdk/xfab/XKIT/xh018/cadence/v10_0/spectre/v10_0_2/lpmos/models/photo/dphoc0_cat.scs
Reading file:  /opt/pdk/xfab/XKIT/xh018/cadence/v10_0/spectre/v10_0_2/lpmos/models/photo/dphocfp.scs
Reading file:  /opt/pdk/xfab/XKIT/xh018/cadence/v10_0/spectre/v10_0_2/lpmos/models/photo/dphocfp_cat.scs
Reading file:  /opt/pdk/xfab/XKIT/xh018/cadence/v10_0/spectre/v10_0_2/lpmos/models/photo/dphod.scs
Reading file:  /opt/pdk/xfab/XKIT/xh018/cadence/v10_0/spectre/v10_0_2/lpmos/models/photo/dphod_an1.scs
Reading file:  /opt/pdk/xfab/XKIT/xh018/cadence/v10_0/spectre/v10_0_2/lpmos/models/photo/dphod_an2.scs
Reading file:  /opt/pdk/xfab/XKIT/xh018/cadence/v10_0/spectre/v10_0_2/lpmos/models/photo/dphod0.scs
Reading file:  /opt/pdk/xfab/XKIT/xh018/cadence/v10_0/spectre/v10_0_2/lpmos/models/photo/dphod0_an1.scs
Reading file:  /opt/pdk/xfab/XKIT/xh018/cadence/v10_0/spectre/v10_0_2/lpmos/models/photo/dphod0_an2.scs
Reading file:  /opt/pdk/xfab/XKIT/xh018/cadence/v10_0/spectre/v10_0_2/lpmos/models/photo/dphodfp.scs
Reading file:  /opt/pdk/xfab/XKIT/xh018/cadence/v10_0/spectre/v10_0_2/lpmos/models/photo/dphodfp_an1.scs
Reading file:  /opt/pdk/xfab/XKIT/xh018/cadence/v10_0/spectre/v10_0_2/lpmos/models/photo/dphodfp_an2.scs
Reading file:  /opt/pdk/xfab/XKIT/xh018/cadence/v10_0/spectre/v10_0_2/lpmos/models/photo/dspada0.scs
Reading file:  /opt/pdk/xfab/XKIT/xh018/cadence/v10_0/spectre/v10_0_2/lpmos/models/photo/ispad.va
Reading file:  /opt/pdk/xfab/XKIT/xh018/cadence/v10_0/spectre/v10_0_2/lpmos/models/photo/dapb.scs
Reading file:  /opt/pdk/xfab/XKIT/xh018/cadence/v10_0/spectre/v10_0_2/lpmos/models/photo/iphoto_apd_trig.va
Reading file:  /opt/pdk/xfab/XKIT/xh018/cadence/v10_0/spectre/v10_0_2/lpmos/models/photo/dapb_jun.scs
Reading file:  /opt/pdk/xfab/XKIT/xh018/cadence/v10_0/spectre/v10_0_2/lpmos/models/photo/dapb_trig.scs
Reading file:  /opt/pdk/xfab/XKIT/xh018/cadence/v10_0/spectre/v10_0_2/lpmos/models/photo/dapb0.scs
Reading file:  /opt/pdk/xfab/XKIT/xh018/cadence/v10_0/spectre/v10_0_2/lpmos/models/photo/dapb0_jun.scs
Reading file:  /opt/pdk/xfab/XKIT/xh018/cadence/v10_0/spectre/v10_0_2/lpmos/models/photo/dspb.scs
Reading file:  /opt/pdk/xfab/XKIT/xh018/cadence/v10_0/spectre/v10_0_2/lpmos/models/photo/ispad_trig.va
Reading file:  /opt/pdk/xfab/XKIT/xh018/cadence/v10_0/spectre/v10_0_2/lpmos/models/photo/dspb_jun.scs
Reading file:  /opt/pdk/xfab/XKIT/xh018/cadence/v10_0/spectre/v10_0_2/lpmos/models/photo/dspb_trig.scs
Reading file:  /opt/pdk/xfab/XKIT/xh018/cadence/v10_0/spectre/v10_0_2/lpmos/models/photo/dspb0.scs
Reading file:  /opt/pdk/xfab/XKIT/xh018/cadence/v10_0/spectre/v10_0_2/lpmos/models/photo/dspb0_jun.scs
Reading file:  /opt/pdk/xfab/XKIT/xh018/cadence/v10_0/spectre/v10_0_2/lpmos/models/photo/dspbfep.scs
Reading file:  /opt/pdk/xfab/XKIT/xh018/cadence/v10_0/spectre/v10_0_2/lpmos/models/photo/dapda.scs
Reading file:  /opt/pdk/xfab/XKIT/xh018/cadence/v10_0/spectre/v10_0_2/lpmos/models/photo/iphoto_apd.va
Reading file:  /opt/pdk/xfab/XKIT/xh018/cadence/v10_0/spectre/v10_0_2/lpmos/models/photo/dapda_cat.scs
Reading file:  /opt/pdk/xfab/XKIT/xh018/cadence/v10_0/spectre/v10_0_2/lpmos/models/photo/dapda0.scs
Reading file:  /opt/pdk/xfab/XKIT/xh018/cadence/v10_0/spectre/v10_0_2/lpmos/models/photo/dspada.scs
Reading file:  /opt/pdk/xfab/XKIT/xh018/cadence/v10_0/spectre/v10_0_2/lpmos/models/photo/dspada_cat.scs
Reading file:  /opt/pdk/xfab/XKIT/xh018/cadence/v10_0/spectre/v10_0_2/lpmos/res.scs
Reading file:  /opt/pdk/xfab/XKIT/xh018/cadence/v10_0/spectre/v10_0_2/lpmos/models/res/tm_res.scs
Reading file:  /opt/pdk/xfab/XKIT/xh018/cadence/v10_0/spectre/v10_0_2/lpmos/models/res/rdn.scs
Reading file:  /opt/pdk/xfab/XKIT/xh018/cadence/v10_0/spectre/v10_0_2/lpmos/models/res/rdn_esd.scs
Reading file:  /opt/pdk/xfab/XKIT/xh018/cadence/v10_0/spectre/v10_0_2/lpmos/models/res/rdp.scs
Reading file:  /opt/pdk/xfab/XKIT/xh018/cadence/v10_0/spectre/v10_0_2/lpmos/models/res/rdp_io.scs
Reading file:  /opt/pdk/xfab/XKIT/xh018/cadence/v10_0/spectre/v10_0_2/lpmos/models/res/rdp_esd.scs
Reading file:  /opt/pdk/xfab/XKIT/xh018/cadence/v10_0/spectre/v10_0_2/lpmos/models/res/rnw.scs
Reading file:  /opt/pdk/xfab/XKIT/xh018/cadence/v10_0/spectre/v10_0_2/lpmos/models/res/rnw_scr.scs
Reading file:  /opt/pdk/xfab/XKIT/xh018/cadence/v10_0/spectre/v10_0_2/lpmos/models/res/rdn3.scs
Reading file:  /opt/pdk/xfab/XKIT/xh018/cadence/v10_0/spectre/v10_0_2/lpmos/models/res/rdp3.scs
Reading file:  /opt/pdk/xfab/XKIT/xh018/cadence/v10_0/spectre/v10_0_2/lpmos/models/res/rnw3.scs
Reading file:  /opt/pdk/xfab/XKIT/xh018/cadence/v10_0/spectre/v10_0_2/lpmos/models/res/rnw3_scr.scs
Reading file:  /opt/pdk/xfab/XKIT/xh018/cadence/v10_0/spectre/v10_0_2/lpmos/models/res/rdnwmv.scs
Reading file:  /opt/pdk/xfab/XKIT/xh018/cadence/v10_0/spectre/v10_0_2/lpmos/models/res/rnp1.scs
Reading file:  /opt/pdk/xfab/XKIT/xh018/cadence/v10_0/spectre/v10_0_2/lpmos/models/res/rnp1_3.scs
Reading file:  /opt/pdk/xfab/XKIT/xh018/cadence/v10_0/spectre/v10_0_2/lpmos/models/res/rpp1.scs
Reading file:  /opt/pdk/xfab/XKIT/xh018/cadence/v10_0/spectre/v10_0_2/lpmos/models/res/rpp1_3.scs
Reading file:  /opt/pdk/xfab/XKIT/xh018/cadence/v10_0/spectre/v10_0_2/lpmos/models/res/rpp1s.scs
Reading file:  /opt/pdk/xfab/XKIT/xh018/cadence/v10_0/spectre/v10_0_2/lpmos/models/res/rpp1s_3.scs
Reading file:  /opt/pdk/xfab/XKIT/xh018/cadence/v10_0/spectre/v10_0_2/lpmos/models/res/rnp1h.scs
Reading file:  /opt/pdk/xfab/XKIT/xh018/cadence/v10_0/spectre/v10_0_2/lpmos/models/res/rnp1h_3.scs
Reading file:  /opt/pdk/xfab/XKIT/xh018/cadence/v10_0/spectre/v10_0_2/lpmos/models/res/rpp1k1.scs
Reading file:  /opt/pdk/xfab/XKIT/xh018/cadence/v10_0/spectre/v10_0_2/lpmos/models/res/rpp1k1_3.scs
Reading file:  /opt/pdk/xfab/XKIT/xh018/cadence/v10_0/spectre/v10_0_2/lpmos/models/res/rctdn.scs
Reading file:  /opt/pdk/xfab/XKIT/xh018/cadence/v10_0/spectre/v10_0_2/lpmos/models/res/rctdp.scs
Reading file:  /opt/pdk/xfab/XKIT/xh018/cadence/v10_0/spectre/v10_0_2/lpmos/models/res/rctp1.scs
Reading file:  /opt/pdk/xfab/XKIT/xh018/cadence/v10_0/spectre/v10_0_2/lpmos/models/res/rsildn.scs
Reading file:  /opt/pdk/xfab/XKIT/xh018/cadence/v10_0/spectre/v10_0_2/lpmos/models/res/rsildp.scs
Reading file:  /opt/pdk/xfab/XKIT/xh018/cadence/v10_0/spectre/v10_0_2/lpmos/models/res/rsilnp1.scs
Reading file:  /opt/pdk/xfab/XKIT/xh018/cadence/v10_0/spectre/v10_0_2/lpmos/models/res/rsilpp1.scs
Reading file:  /opt/pdk/xfab/XKIT/xh018/cadence/v10_0/spectre/v10_0_2/lpmos/models/res/rsbdn.scs
Reading file:  /opt/pdk/xfab/XKIT/xh018/cadence/v10_0/spectre/v10_0_2/lpmos/models/res/rsbdp.scs
Reading file:  /opt/pdk/xfab/XKIT/xh018/cadence/v10_0/spectre/v10_0_2/lpmos/models/res/rsbdn3.scs
Reading file:  /opt/pdk/xfab/XKIT/xh018/cadence/v10_0/spectre/v10_0_2/lpmos/models/res/rsbdp3.scs
Reading file:  /opt/pdk/xfab/XKIT/xh018/cadence/v10_0/spectre/v10_0_2/lpmos/models/res/rsbnp1.scs
Reading file:  /opt/pdk/xfab/XKIT/xh018/cadence/v10_0/spectre/v10_0_2/lpmos/models/res/rsbpp1.scs
Reading file:  /opt/pdk/xfab/XKIT/xh018/cadence/v10_0/spectre/v10_0_2/lpmos/models/res/rsbpp1k1.scs
Reading file:  /opt/pdk/xfab/XKIT/xh018/cadence/v10_0/spectre/v10_0_2/lpmos/models/res/rm1.scs
Reading file:  /opt/pdk/xfab/XKIT/xh018/cadence/v10_0/spectre/v10_0_2/lpmos/models/res/rm2.scs
Reading file:  /opt/pdk/xfab/XKIT/xh018/cadence/v10_0/spectre/v10_0_2/lpmos/models/res/rm3.scs
Reading file:  /opt/pdk/xfab/XKIT/xh018/cadence/v10_0/spectre/v10_0_2/lpmos/models/res/rm4.scs
Reading file:  /opt/pdk/xfab/XKIT/xh018/cadence/v10_0/spectre/v10_0_2/lpmos/models/res/rm5.scs
Reading file:  /opt/pdk/xfab/XKIT/xh018/cadence/v10_0/spectre/v10_0_2/lpmos/models/res/rmtp.scs
Reading file:  /opt/pdk/xfab/XKIT/xh018/cadence/v10_0/spectre/v10_0_2/lpmos/models/res/rmtpl.scs
Reading file:  /opt/pdk/xfab/XKIT/xh018/cadence/v10_0/spectre/v10_0_2/lpmos/models/res/pfuse.scs
Reading file:  /opt/pdk/xfab/XKIT/xh018/cadence/v10_0/spectre/v10_0_2/lpmos/models/res/s_res.scs
Time for NDB Parsing: CPU = 186.295 ms, elapsed = 643.703 ms.
Time accumulated: CPU = 340.291 ms, elapsed = 643.705 ms.
Peak resident memory used = 200 Mbytes.

Time for Elaboration: CPU = 13.422 ms, elapsed = 14.6811 ms.
Time accumulated: CPU = 353.796 ms, elapsed = 658.524 ms.
Peak resident memory used = 211 Mbytes.


Notice from spectre during hierarchy flattening.
    The value 'psf' specified for the 'checklimitdest' option will no longer be supported in future releases. Use 'spectre -h' to see other recommended values for the 'checklimitdest' option.


Time for EDB Visiting: CPU = 902 us, elapsed = 1.17803 ms.
Time accumulated: CPU = 354.784 ms, elapsed = 659.855 ms.
Peak resident memory used = 213 Mbytes.


Notice from spectre during initial setup.
    Multithreading is disabled due to the size of the design being too small.


Netlist title:
        // Generated for: spectre


Global user options:
         psfversion = 1.4.0
            vabstol = 1e-06
            iabstol = 1e-12
               temp = 27
               gmin = 1e-12
             rforce = 1
           maxnotes = 5
           maxwarns = 5
             digits = 5
               cols = 80
             pivrel = 0.001
           sensfile = ../psf/sens.output
     checklimitdest = psf
               save = allpub
             reltol = 0.001
               tnom = 27
             scalem = 1
              scale = 1

Scoped user options:

Circuit inventory:
              nodes 7
            bsim3v3 3     
          capacitor 4     
            isource 4     
           resistor 2     
            vsource 2     

Analysis and control statement inventory:
                 ac 1     
                 dc 1     
               info 7     
                 pz 1     

Output statements:
             .probe 0     
           .measure 0     
               save 0     


Notice from spectre during initial setup.
    APS enabled.

Time for parsing: CPU = 1.968 ms, elapsed = 7.50899 ms.
Time accumulated: CPU = 356.818 ms, elapsed = 667.469 ms.
Peak resident memory used = 216 Mbytes.

~~~~~~~~~~~~~~~~~~~~~~
Pre-Simulation Summary
~~~~~~~~~~~~~~~~~~~~~~
   -   (APS) Multi-threading. The recommended number of threads is 1, consider adding +mt=1 on command line.
~~~~~~~~~~~~~~~~~~~~~~

******************
DC Analysis `dcOp'
******************

Opening the PSF file ../psf/dcOp.dc ...
Important parameter values:
    reltol = 1e-03
    abstol(V) = 1 uV
    abstol(I) = 1 pA
    temp = 27 C
    tnom = 27 C
    tempeffects = all
    gmindc = 1 pS
    rabsshort = 1 mOhm
Trying `homotopy = gmin'.
Homotopy: gmin, steps: 22

Notice from spectre during DC analysis `dcOp'.
    Bad pivoting is found during DC analysis. Option dc_pivot_check=yes is recommended for possible improvement of convergence.


Maximum value achieved for any signal of each quantity: 
V: V(net4) = 1.8 V
I: I(V1:p) = 30 uA
Convergence achieved in 220 iterations.
DC simulation time: CPU = 2.723 ms, elapsed = 7.29609 ms.
Total time required for dc analysis `dcOp': CPU = 2.798 ms, elapsed = 7.42698 ms, util. = 37.7%.
Time accumulated: CPU = 367.345 ms, elapsed = 687.1 ms.
Peak resident memory used = 219 Mbytes.

dcOpInfo: writing operating point information to rawfile.

Opening the PSF file ../psf/dcOpInfo.info ...

********************************************
AC Analysis `ac': freq = (10 mHz -> 100 MHz)
********************************************

Notice from spectre during AC analysis `ac'.
    Operating points will not be recomputed: the circuit and conditions were not changed since previous analysis.


Opening the PSF file ../psf/ac.ac ...
    ac: freq = 17.78 mHz    (2.5 %), step = 994.8 uHz    (250 m%)
    ac: freq = 18.84 mHz   (2.75 %), step = 1.054 mHz    (250 m%)
    ac: freq = 19.95 mHz      (3 %), step = 1.116 mHz    (250 m%)
    ac: freq = 21.13 mHz   (3.25 %), step = 1.182 mHz    (250 m%)
    ac: freq = 22.39 mHz    (3.5 %), step = 1.252 mHz    (250 m%)
    ac: freq = 23.71 mHz   (3.75 %), step = 1.327 mHz    (250 m%)
    ac: freq = 25.12 mHz      (4 %), step = 1.405 mHz    (250 m%)
    ac: freq = 26.61 mHz   (4.25 %), step = 1.488 mHz    (250 m%)
    ac: freq = 28.18 mHz    (4.5 %), step = 1.577 mHz    (250 m%)
    ac: freq = 29.85 mHz   (4.75 %), step = 1.67 mHz     (250 m%)
    ac: freq = 31.62 mHz      (5 %), step = 1.769 mHz    (250 m%)
    ac: freq = 33.5 mHz    (5.25 %), step = 1.874 mHz    (250 m%)
    ac: freq = 35.48 mHz    (5.5 %), step = 1.985 mHz    (250 m%)
    ac: freq = 37.58 mHz   (5.75 %), step = 2.102 mHz    (250 m%)
    ac: freq = 39.81 mHz      (6 %), step = 2.227 mHz    (250 m%)
    ac: freq = 42.17 mHz   (6.25 %), step = 2.359 mHz    (250 m%)
    ac: freq = 44.67 mHz    (6.5 %), step = 2.499 mHz    (250 m%)
    ac: freq = 47.32 mHz   (6.75 %), step = 2.647 mHz    (250 m%)
    ac: freq = 50.12 mHz      (7 %), step = 2.804 mHz    (250 m%)
    ac: freq = 53.09 mHz   (7.25 %), step = 2.97 mHz     (250 m%)
    ac: freq = 56.23 mHz    (7.5 %), step = 3.146 mHz    (250 m%)
    ac: freq = 59.57 mHz   (7.75 %), step = 3.332 mHz    (250 m%)
    ac: freq = 63.1 mHz       (8 %), step = 3.53 mHz     (250 m%)
    ac: freq = 66.83 mHz   (8.25 %), step = 3.739 mHz    (250 m%)
    ac: freq = 70.79 mHz    (8.5 %), step = 3.96 mHz     (250 m%)
    ac: freq = 74.99 mHz   (8.75 %), step = 4.195 mHz    (250 m%)
    ac: freq = 79.43 mHz      (9 %), step = 4.443 mHz    (250 m%)
    ac: freq = 84.14 mHz   (9.25 %), step = 4.707 mHz    (250 m%)
    ac: freq = 89.13 mHz    (9.5 %), step = 4.986 mHz    (250 m%)
    ac: freq = 94.41 mHz   (9.75 %), step = 5.281 mHz    (250 m%)
    ac: freq = 100 mHz       (10 %), step = 5.594 mHz    (250 m%)
    ac: freq = 105.9 mHz   (10.2 %), step = 5.925 mHz    (250 m%)
    ac: freq = 112.2 mHz   (10.5 %), step = 6.276 mHz    (250 m%)
    ac: freq = 118.9 mHz   (10.8 %), step = 6.648 mHz    (250 m%)
    ac: freq = 125.9 mHz     (11 %), step = 7.042 mHz    (250 m%)
    ac: freq = 133.4 mHz   (11.2 %), step = 7.46 mHz     (250 m%)
    ac: freq = 141.3 mHz   (11.5 %), step = 7.902 mHz    (250 m%)
    ac: freq = 149.6 mHz   (11.8 %), step = 8.37 mHz     (250 m%)
    ac: freq = 158.5 mHz     (12 %), step = 8.866 mHz    (250 m%)
    ac: freq = 167.9 mHz   (12.2 %), step = 9.391 mHz    (250 m%)
    ac: freq = 177.8 mHz   (12.5 %), step = 9.948 mHz    (250 m%)
    ac: freq = 188.4 mHz   (12.8 %), step = 10.54 mHz    (250 m%)
    ac: freq = 199.5 mHz     (13 %), step = 11.16 mHz    (250 m%)
    ac: freq = 211.3 mHz   (13.2 %), step = 11.82 mHz    (250 m%)
    ac: freq = 223.9 mHz   (13.5 %), step = 12.52 mHz    (250 m%)
    ac: freq = 237.1 mHz   (13.8 %), step = 13.27 mHz    (250 m%)
    ac: freq = 251.2 mHz     (14 %), step = 14.05 mHz    (250 m%)
    ac: freq = 266.1 mHz   (14.2 %), step = 14.88 mHz    (250 m%)
    ac: freq = 281.8 mHz   (14.5 %), step = 15.77 mHz    (250 m%)
    ac: freq = 298.5 mHz   (14.8 %), step = 16.7 mHz     (250 m%)
    ac: freq = 316.2 mHz     (15 %), step = 17.69 mHz    (250 m%)
    ac: freq = 335 mHz     (15.2 %), step = 18.74 mHz    (250 m%)
    ac: freq = 354.8 mHz   (15.5 %), step = 19.85 mHz    (250 m%)
    ac: freq = 375.8 mHz   (15.8 %), step = 21.02 mHz    (250 m%)
    ac: freq = 398.1 mHz     (16 %), step = 22.27 mHz    (250 m%)
    ac: freq = 421.7 mHz   (16.2 %), step = 23.59 mHz    (250 m%)
    ac: freq = 446.7 mHz   (16.5 %), step = 24.99 mHz    (250 m%)
    ac: freq = 473.2 mHz   (16.8 %), step = 26.47 mHz    (250 m%)
    ac: freq = 501.2 mHz     (17 %), step = 28.04 mHz    (250 m%)
    ac: freq = 530.9 mHz   (17.2 %), step = 29.7 mHz     (250 m%)
    ac: freq = 562.3 mHz   (17.5 %), step = 31.46 mHz    (250 m%)
    ac: freq = 595.7 mHz   (17.8 %), step = 33.32 mHz    (250 m%)
    ac: freq = 631 mHz       (18 %), step = 35.3 mHz     (250 m%)
    ac: freq = 668.3 mHz   (18.2 %), step = 37.39 mHz    (250 m%)
    ac: freq = 707.9 mHz   (18.5 %), step = 39.6 mHz     (250 m%)
    ac: freq = 749.9 mHz   (18.8 %), step = 41.95 mHz    (250 m%)
    ac: freq = 794.3 mHz     (19 %), step = 44.43 mHz    (250 m%)
    ac: freq = 841.4 mHz   (19.2 %), step = 47.07 mHz    (250 m%)
    ac: freq = 891.3 mHz   (19.5 %), step = 49.86 mHz    (250 m%)
    ac: freq = 944.1 mHz   (19.8 %), step = 52.81 mHz    (250 m%)
    ac: freq = 1 Hz          (20 %), step = 55.94 mHz    (250 m%)
    ac: freq = 1.059 Hz    (20.2 %), step = 59.25 mHz    (250 m%)
    ac: freq = 1.122 Hz    (20.5 %), step = 62.76 mHz    (250 m%)
    ac: freq = 1.189 Hz    (20.8 %), step = 66.48 mHz    (250 m%)
    ac: freq = 1.259 Hz      (21 %), step = 70.42 mHz    (250 m%)
    ac: freq = 1.334 Hz    (21.2 %), step = 74.6 mHz     (250 m%)
    ac: freq = 1.413 Hz    (21.5 %), step = 79.02 mHz    (250 m%)
    ac: freq = 1.496 Hz    (21.8 %), step = 83.7 mHz     (250 m%)
    ac: freq = 1.585 Hz      (22 %), step = 88.66 mHz    (250 m%)
    ac: freq = 1.679 Hz    (22.2 %), step = 93.91 mHz    (250 m%)
    ac: freq = 1.778 Hz    (22.5 %), step = 99.48 mHz    (250 m%)
    ac: freq = 1.884 Hz    (22.8 %), step = 105.4 mHz    (250 m%)
    ac: freq = 1.995 Hz      (23 %), step = 111.6 mHz    (250 m%)
    ac: freq = 2.113 Hz    (23.2 %), step = 118.2 mHz    (250 m%)
    ac: freq = 2.239 Hz    (23.5 %), step = 125.2 mHz    (250 m%)
    ac: freq = 2.371 Hz    (23.8 %), step = 132.7 mHz    (250 m%)
    ac: freq = 2.512 Hz      (24 %), step = 140.5 mHz    (250 m%)
    ac: freq = 2.661 Hz    (24.2 %), step = 148.8 mHz    (250 m%)
    ac: freq = 2.818 Hz    (24.5 %), step = 157.7 mHz    (250 m%)
    ac: freq = 2.985 Hz    (24.8 %), step = 167 mHz      (250 m%)
    ac: freq = 3.162 Hz      (25 %), step = 176.9 mHz    (250 m%)
    ac: freq = 3.35 Hz     (25.2 %), step = 187.4 mHz    (250 m%)
    ac: freq = 3.548 Hz    (25.5 %), step = 198.5 mHz    (250 m%)
    ac: freq = 3.758 Hz    (25.8 %), step = 210.2 mHz    (250 m%)
    ac: freq = 3.981 Hz      (26 %), step = 222.7 mHz    (250 m%)
    ac: freq = 4.217 Hz    (26.2 %), step = 235.9 mHz    (250 m%)
    ac: freq = 4.467 Hz    (26.5 %), step = 249.9 mHz    (250 m%)
    ac: freq = 4.732 Hz    (26.8 %), step = 264.7 mHz    (250 m%)
    ac: freq = 5.012 Hz      (27 %), step = 280.4 mHz    (250 m%)
    ac: freq = 5.309 Hz    (27.3 %), step = 297 mHz      (250 m%)
    ac: freq = 5.623 Hz    (27.5 %), step = 314.6 mHz    (250 m%)
    ac: freq = 5.957 Hz    (27.8 %), step = 333.2 mHz    (250 m%)
    ac: freq = 6.31 Hz       (28 %), step = 353 mHz      (250 m%)
    ac: freq = 6.683 Hz    (28.2 %), step = 373.9 mHz    (250 m%)
    ac: freq = 7.079 Hz    (28.5 %), step = 396 mHz      (250 m%)
    ac: freq = 7.499 Hz    (28.7 %), step = 419.5 mHz    (250 m%)
    ac: freq = 7.943 Hz      (29 %), step = 444.3 mHz    (250 m%)
    ac: freq = 8.414 Hz    (29.2 %), step = 470.7 mHz    (250 m%)
    ac: freq = 8.913 Hz    (29.5 %), step = 498.6 mHz    (250 m%)
    ac: freq = 9.441 Hz    (29.8 %), step = 528.1 mHz    (250 m%)
    ac: freq = 10 Hz         (30 %), step = 559.4 mHz    (250 m%)
    ac: freq = 10.59 Hz    (30.2 %), step = 592.5 mHz    (250 m%)
    ac: freq = 11.22 Hz    (30.5 %), step = 627.6 mHz    (250 m%)
    ac: freq = 11.89 Hz    (30.8 %), step = 664.8 mHz    (250 m%)
    ac: freq = 12.59 Hz      (31 %), step = 704.2 mHz    (250 m%)
    ac: freq = 13.34 Hz    (31.2 %), step = 746 mHz      (250 m%)
    ac: freq = 14.13 Hz    (31.5 %), step = 790.2 mHz    (250 m%)
    ac: freq = 14.96 Hz    (31.8 %), step = 837 mHz      (250 m%)
    ac: freq = 15.85 Hz      (32 %), step = 886.6 mHz    (250 m%)
    ac: freq = 16.79 Hz    (32.2 %), step = 939.1 mHz    (250 m%)
    ac: freq = 17.78 Hz    (32.5 %), step = 994.8 mHz    (250 m%)
    ac: freq = 18.84 Hz    (32.8 %), step = 1.054 Hz     (250 m%)
    ac: freq = 19.95 Hz      (33 %), step = 1.116 Hz     (250 m%)
    ac: freq = 21.13 Hz    (33.2 %), step = 1.182 Hz     (250 m%)
    ac: freq = 22.39 Hz    (33.5 %), step = 1.252 Hz     (250 m%)
    ac: freq = 23.71 Hz    (33.8 %), step = 1.327 Hz     (250 m%)
    ac: freq = 25.12 Hz      (34 %), step = 1.405 Hz     (250 m%)
    ac: freq = 26.61 Hz    (34.2 %), step = 1.488 Hz     (250 m%)
    ac: freq = 28.18 Hz    (34.5 %), step = 1.577 Hz     (250 m%)
    ac: freq = 29.85 Hz    (34.8 %), step = 1.67 Hz      (250 m%)
    ac: freq = 31.62 Hz      (35 %), step = 1.769 Hz     (250 m%)
    ac: freq = 33.5 Hz     (35.2 %), step = 1.874 Hz     (250 m%)
    ac: freq = 35.48 Hz    (35.5 %), step = 1.985 Hz     (250 m%)
    ac: freq = 37.58 Hz    (35.8 %), step = 2.102 Hz     (250 m%)
    ac: freq = 39.81 Hz      (36 %), step = 2.227 Hz     (250 m%)
    ac: freq = 42.17 Hz    (36.2 %), step = 2.359 Hz     (250 m%)
    ac: freq = 44.67 Hz    (36.5 %), step = 2.499 Hz     (250 m%)
    ac: freq = 47.32 Hz    (36.8 %), step = 2.647 Hz     (250 m%)
    ac: freq = 50.12 Hz      (37 %), step = 2.804 Hz     (250 m%)
    ac: freq = 53.09 Hz    (37.2 %), step = 2.97 Hz      (250 m%)
    ac: freq = 56.23 Hz    (37.5 %), step = 3.146 Hz     (250 m%)
    ac: freq = 59.57 Hz    (37.8 %), step = 3.332 Hz     (250 m%)
    ac: freq = 63.1 Hz       (38 %), step = 3.53 Hz      (250 m%)
    ac: freq = 66.83 Hz    (38.2 %), step = 3.739 Hz     (250 m%)
    ac: freq = 70.79 Hz    (38.5 %), step = 3.96 Hz      (250 m%)
    ac: freq = 74.99 Hz    (38.8 %), step = 4.195 Hz     (250 m%)
    ac: freq = 79.43 Hz      (39 %), step = 4.443 Hz     (250 m%)
    ac: freq = 84.14 Hz    (39.2 %), step = 4.707 Hz     (250 m%)
    ac: freq = 89.13 Hz    (39.5 %), step = 4.986 Hz     (250 m%)
    ac: freq = 94.41 Hz    (39.8 %), step = 5.281 Hz     (250 m%)
    ac: freq = 100 Hz        (40 %), step = 5.594 Hz     (250 m%)
    ac: freq = 105.9 Hz    (40.2 %), step = 5.925 Hz     (250 m%)
    ac: freq = 112.2 Hz    (40.5 %), step = 6.276 Hz     (250 m%)
    ac: freq = 118.9 Hz    (40.8 %), step = 6.648 Hz     (250 m%)
    ac: freq = 125.9 Hz      (41 %), step = 7.042 Hz     (250 m%)
    ac: freq = 133.4 Hz    (41.2 %), step = 7.46 Hz      (250 m%)
    ac: freq = 141.3 Hz    (41.5 %), step = 7.902 Hz     (250 m%)
    ac: freq = 149.6 Hz    (41.8 %), step = 8.37 Hz      (250 m%)
    ac: freq = 158.5 Hz      (42 %), step = 8.866 Hz     (250 m%)
    ac: freq = 167.9 Hz    (42.2 %), step = 9.391 Hz     (250 m%)
    ac: freq = 177.8 Hz    (42.5 %), step = 9.948 Hz     (250 m%)
    ac: freq = 188.4 Hz    (42.8 %), step = 10.54 Hz     (250 m%)
    ac: freq = 199.5 Hz      (43 %), step = 11.16 Hz     (250 m%)
    ac: freq = 211.3 Hz    (43.2 %), step = 11.82 Hz     (250 m%)
    ac: freq = 223.9 Hz    (43.5 %), step = 12.52 Hz     (250 m%)
    ac: freq = 237.1 Hz    (43.8 %), step = 13.27 Hz     (250 m%)
    ac: freq = 251.2 Hz      (44 %), step = 14.05 Hz     (250 m%)
    ac: freq = 266.1 Hz    (44.2 %), step = 14.88 Hz     (250 m%)
    ac: freq = 281.8 Hz    (44.5 %), step = 15.77 Hz     (250 m%)
    ac: freq = 298.5 Hz    (44.8 %), step = 16.7 Hz      (250 m%)
    ac: freq = 316.2 Hz      (45 %), step = 17.69 Hz     (250 m%)
    ac: freq = 335 Hz      (45.2 %), step = 18.74 Hz     (250 m%)
    ac: freq = 354.8 Hz    (45.5 %), step = 19.85 Hz     (250 m%)
    ac: freq = 375.8 Hz    (45.8 %), step = 21.02 Hz     (250 m%)
    ac: freq = 398.1 Hz      (46 %), step = 22.27 Hz     (250 m%)
    ac: freq = 421.7 Hz    (46.2 %), step = 23.59 Hz     (250 m%)
    ac: freq = 446.7 Hz    (46.5 %), step = 24.99 Hz     (250 m%)
    ac: freq = 473.2 Hz    (46.8 %), step = 26.47 Hz     (250 m%)
    ac: freq = 501.2 Hz      (47 %), step = 28.04 Hz     (250 m%)
    ac: freq = 530.9 Hz    (47.2 %), step = 29.7 Hz      (250 m%)
    ac: freq = 562.3 Hz    (47.5 %), step = 31.46 Hz     (250 m%)
    ac: freq = 595.7 Hz    (47.8 %), step = 33.32 Hz     (250 m%)
    ac: freq = 631 Hz        (48 %), step = 35.3 Hz      (250 m%)
    ac: freq = 668.3 Hz    (48.2 %), step = 37.39 Hz     (250 m%)
    ac: freq = 707.9 Hz    (48.5 %), step = 39.6 Hz      (250 m%)
    ac: freq = 749.9 Hz    (48.8 %), step = 41.95 Hz     (250 m%)
    ac: freq = 794.3 Hz      (49 %), step = 44.43 Hz     (250 m%)
    ac: freq = 841.4 Hz    (49.2 %), step = 47.07 Hz     (250 m%)
    ac: freq = 891.3 Hz    (49.5 %), step = 49.86 Hz     (250 m%)
    ac: freq = 944.1 Hz    (49.8 %), step = 52.81 Hz     (250 m%)
    ac: freq = 1 kHz         (50 %), step = 55.94 Hz     (250 m%)
    ac: freq = 1.059 kHz   (50.2 %), step = 59.25 Hz     (250 m%)
    ac: freq = 1.122 kHz   (50.5 %), step = 62.76 Hz     (250 m%)
    ac: freq = 1.189 kHz   (50.7 %), step = 66.48 Hz     (250 m%)
    ac: freq = 1.259 kHz     (51 %), step = 70.42 Hz     (250 m%)
    ac: freq = 1.334 kHz   (51.2 %), step = 74.6 Hz      (250 m%)
    ac: freq = 1.413 kHz   (51.5 %), step = 79.02 Hz     (250 m%)
    ac: freq = 1.496 kHz   (51.7 %), step = 83.7 Hz      (250 m%)
    ac: freq = 1.585 kHz     (52 %), step = 88.66 Hz     (250 m%)
    ac: freq = 1.679 kHz   (52.2 %), step = 93.91 Hz     (250 m%)
    ac: freq = 1.778 kHz   (52.5 %), step = 99.48 Hz     (250 m%)
    ac: freq = 1.884 kHz   (52.8 %), step = 105.4 Hz     (250 m%)
    ac: freq = 1.995 kHz     (53 %), step = 111.6 Hz     (250 m%)
    ac: freq = 2.113 kHz   (53.2 %), step = 118.2 Hz     (250 m%)
    ac: freq = 2.239 kHz   (53.5 %), step = 125.2 Hz     (250 m%)
    ac: freq = 2.371 kHz   (53.8 %), step = 132.7 Hz     (250 m%)
    ac: freq = 2.512 kHz     (54 %), step = 140.5 Hz     (250 m%)
    ac: freq = 2.661 kHz   (54.2 %), step = 148.8 Hz     (250 m%)
    ac: freq = 2.818 kHz   (54.5 %), step = 157.7 Hz     (250 m%)
    ac: freq = 2.985 kHz   (54.8 %), step = 167 Hz       (250 m%)
    ac: freq = 3.162 kHz     (55 %), step = 176.9 Hz     (250 m%)
    ac: freq = 3.35 kHz    (55.2 %), step = 187.4 Hz     (250 m%)
    ac: freq = 3.548 kHz   (55.5 %), step = 198.5 Hz     (250 m%)
    ac: freq = 3.758 kHz   (55.8 %), step = 210.2 Hz     (250 m%)
    ac: freq = 3.981 kHz     (56 %), step = 222.7 Hz     (250 m%)
    ac: freq = 4.217 kHz   (56.2 %), step = 235.9 Hz     (250 m%)
    ac: freq = 4.467 kHz   (56.5 %), step = 249.9 Hz     (250 m%)
    ac: freq = 4.732 kHz   (56.8 %), step = 264.7 Hz     (250 m%)
    ac: freq = 5.012 kHz     (57 %), step = 280.4 Hz     (250 m%)
    ac: freq = 5.309 kHz   (57.2 %), step = 297 Hz       (250 m%)
    ac: freq = 5.623 kHz   (57.5 %), step = 314.6 Hz     (250 m%)
    ac: freq = 5.957 kHz   (57.8 %), step = 333.2 Hz     (250 m%)
    ac: freq = 6.31 kHz      (58 %), step = 353 Hz       (250 m%)
    ac: freq = 6.683 kHz   (58.2 %), step = 373.9 Hz     (250 m%)
    ac: freq = 7.079 kHz   (58.5 %), step = 396 Hz       (250 m%)
    ac: freq = 7.499 kHz   (58.8 %), step = 419.5 Hz     (250 m%)
    ac: freq = 7.943 kHz     (59 %), step = 444.3 Hz     (250 m%)
    ac: freq = 8.414 kHz   (59.2 %), step = 470.7 Hz     (250 m%)
    ac: freq = 8.913 kHz   (59.5 %), step = 498.6 Hz     (250 m%)
    ac: freq = 9.441 kHz   (59.8 %), step = 528.1 Hz     (250 m%)
    ac: freq = 10 kHz        (60 %), step = 559.4 Hz     (250 m%)
    ac: freq = 10.59 kHz   (60.2 %), step = 592.5 Hz     (250 m%)
    ac: freq = 11.22 kHz   (60.5 %), step = 627.6 Hz     (250 m%)
    ac: freq = 11.89 kHz   (60.8 %), step = 664.8 Hz     (250 m%)
    ac: freq = 12.59 kHz     (61 %), step = 704.2 Hz     (250 m%)
    ac: freq = 13.34 kHz   (61.3 %), step = 746 Hz       (250 m%)
    ac: freq = 14.13 kHz   (61.5 %), step = 790.2 Hz     (250 m%)
    ac: freq = 14.96 kHz   (61.8 %), step = 837 Hz       (250 m%)
    ac: freq = 15.85 kHz     (62 %), step = 886.6 Hz     (250 m%)
    ac: freq = 16.79 kHz   (62.3 %), step = 939.1 Hz     (250 m%)
    ac: freq = 17.78 kHz   (62.5 %), step = 994.8 Hz     (250 m%)
    ac: freq = 18.84 kHz   (62.7 %), step = 1.054 kHz    (250 m%)
    ac: freq = 19.95 kHz     (63 %), step = 1.116 kHz    (250 m%)
    ac: freq = 21.13 kHz   (63.2 %), step = 1.182 kHz    (250 m%)
    ac: freq = 22.39 kHz   (63.5 %), step = 1.252 kHz    (250 m%)
    ac: freq = 23.71 kHz   (63.7 %), step = 1.327 kHz    (250 m%)
    ac: freq = 25.12 kHz     (64 %), step = 1.405 kHz    (250 m%)
    ac: freq = 26.61 kHz   (64.2 %), step = 1.488 kHz    (250 m%)
    ac: freq = 28.18 kHz   (64.5 %), step = 1.577 kHz    (250 m%)
    ac: freq = 29.85 kHz   (64.8 %), step = 1.67 kHz     (250 m%)
    ac: freq = 31.62 kHz     (65 %), step = 1.769 kHz    (250 m%)
    ac: freq = 33.5 kHz    (65.2 %), step = 1.874 kHz    (250 m%)
    ac: freq = 35.48 kHz   (65.5 %), step = 1.985 kHz    (250 m%)
    ac: freq = 37.58 kHz   (65.8 %), step = 2.102 kHz    (250 m%)
    ac: freq = 39.81 kHz     (66 %), step = 2.227 kHz    (250 m%)
    ac: freq = 42.17 kHz   (66.2 %), step = 2.359 kHz    (250 m%)
    ac: freq = 44.67 kHz   (66.5 %), step = 2.499 kHz    (250 m%)
    ac: freq = 47.32 kHz   (66.8 %), step = 2.647 kHz    (250 m%)
    ac: freq = 50.12 kHz     (67 %), step = 2.804 kHz    (250 m%)
    ac: freq = 53.09 kHz   (67.2 %), step = 2.97 kHz     (250 m%)
    ac: freq = 56.23 kHz   (67.5 %), step = 3.146 kHz    (250 m%)
    ac: freq = 59.57 kHz   (67.8 %), step = 3.332 kHz    (250 m%)
    ac: freq = 63.1 kHz      (68 %), step = 3.53 kHz     (250 m%)
    ac: freq = 66.83 kHz   (68.2 %), step = 3.739 kHz    (250 m%)
    ac: freq = 70.79 kHz   (68.5 %), step = 3.96 kHz     (250 m%)
    ac: freq = 74.99 kHz   (68.8 %), step = 4.195 kHz    (250 m%)
    ac: freq = 79.43 kHz     (69 %), step = 4.443 kHz    (250 m%)
    ac: freq = 84.14 kHz   (69.2 %), step = 4.707 kHz    (250 m%)
    ac: freq = 89.13 kHz   (69.5 %), step = 4.986 kHz    (250 m%)
    ac: freq = 94.41 kHz   (69.8 %), step = 5.281 kHz    (250 m%)
    ac: freq = 100 kHz       (70 %), step = 5.594 kHz    (250 m%)
    ac: freq = 105.9 kHz   (70.2 %), step = 5.925 kHz    (250 m%)
    ac: freq = 112.2 kHz   (70.5 %), step = 6.276 kHz    (250 m%)
    ac: freq = 118.9 kHz   (70.8 %), step = 6.648 kHz    (250 m%)
    ac: freq = 125.9 kHz     (71 %), step = 7.042 kHz    (250 m%)
    ac: freq = 133.4 kHz   (71.2 %), step = 7.46 kHz     (250 m%)
    ac: freq = 141.3 kHz   (71.5 %), step = 7.902 kHz    (250 m%)
    ac: freq = 149.6 kHz   (71.8 %), step = 8.37 kHz     (250 m%)
    ac: freq = 158.5 kHz     (72 %), step = 8.866 kHz    (250 m%)
    ac: freq = 167.9 kHz   (72.2 %), step = 9.391 kHz    (250 m%)
    ac: freq = 177.8 kHz   (72.5 %), step = 9.948 kHz    (250 m%)
    ac: freq = 188.4 kHz   (72.8 %), step = 10.54 kHz    (250 m%)
    ac: freq = 199.5 kHz     (73 %), step = 11.16 kHz    (250 m%)
    ac: freq = 211.3 kHz   (73.2 %), step = 11.82 kHz    (250 m%)
    ac: freq = 223.9 kHz   (73.5 %), step = 12.52 kHz    (250 m%)
    ac: freq = 237.1 kHz   (73.8 %), step = 13.27 kHz    (250 m%)
    ac: freq = 251.2 kHz     (74 %), step = 14.05 kHz    (250 m%)
    ac: freq = 266.1 kHz   (74.2 %), step = 14.88 kHz    (250 m%)
    ac: freq = 281.8 kHz   (74.5 %), step = 15.77 kHz    (250 m%)
    ac: freq = 298.5 kHz   (74.8 %), step = 16.7 kHz     (250 m%)
    ac: freq = 316.2 kHz     (75 %), step = 17.69 kHz    (250 m%)
    ac: freq = 335 kHz     (75.2 %), step = 18.74 kHz    (250 m%)
    ac: freq = 354.8 kHz   (75.5 %), step = 19.85 kHz    (250 m%)
    ac: freq = 375.8 kHz   (75.8 %), step = 21.02 kHz    (250 m%)
    ac: freq = 398.1 kHz     (76 %), step = 22.27 kHz    (250 m%)
    ac: freq = 421.7 kHz   (76.2 %), step = 23.59 kHz    (250 m%)
    ac: freq = 446.7 kHz   (76.5 %), step = 24.99 kHz    (250 m%)
    ac: freq = 473.2 kHz   (76.8 %), step = 26.47 kHz    (250 m%)
    ac: freq = 501.2 kHz     (77 %), step = 28.04 kHz    (250 m%)
    ac: freq = 530.9 kHz   (77.2 %), step = 29.7 kHz     (250 m%)
    ac: freq = 562.3 kHz   (77.5 %), step = 31.46 kHz    (250 m%)
    ac: freq = 595.7 kHz   (77.8 %), step = 33.32 kHz    (250 m%)
    ac: freq = 631 kHz       (78 %), step = 35.3 kHz     (250 m%)
    ac: freq = 668.3 kHz   (78.2 %), step = 37.39 kHz    (250 m%)
    ac: freq = 707.9 kHz   (78.5 %), step = 39.6 kHz     (250 m%)
    ac: freq = 749.9 kHz   (78.8 %), step = 41.95 kHz    (250 m%)
    ac: freq = 794.3 kHz     (79 %), step = 44.43 kHz    (250 m%)
    ac: freq = 841.4 kHz   (79.2 %), step = 47.07 kHz    (250 m%)
    ac: freq = 891.3 kHz   (79.5 %), step = 49.86 kHz    (250 m%)
    ac: freq = 944.1 kHz   (79.8 %), step = 52.81 kHz    (250 m%)
    ac: freq = 1 MHz         (80 %), step = 55.94 kHz    (250 m%)
    ac: freq = 1.059 MHz   (80.2 %), step = 59.25 kHz    (250 m%)
    ac: freq = 1.122 MHz   (80.5 %), step = 62.76 kHz    (250 m%)
    ac: freq = 1.189 MHz   (80.8 %), step = 66.48 kHz    (250 m%)
    ac: freq = 1.259 MHz     (81 %), step = 70.42 kHz    (250 m%)
    ac: freq = 1.334 MHz   (81.2 %), step = 74.6 kHz     (250 m%)
    ac: freq = 1.413 MHz   (81.5 %), step = 79.02 kHz    (250 m%)
    ac: freq = 1.496 MHz   (81.8 %), step = 83.7 kHz     (250 m%)
    ac: freq = 1.585 MHz     (82 %), step = 88.66 kHz    (250 m%)
    ac: freq = 1.679 MHz   (82.2 %), step = 93.91 kHz    (250 m%)
    ac: freq = 1.778 MHz   (82.5 %), step = 99.48 kHz    (250 m%)
    ac: freq = 1.884 MHz   (82.8 %), step = 105.4 kHz    (250 m%)
    ac: freq = 1.995 MHz     (83 %), step = 111.6 kHz    (250 m%)
    ac: freq = 2.113 MHz   (83.2 %), step = 118.2 kHz    (250 m%)
    ac: freq = 2.239 MHz   (83.5 %), step = 125.2 kHz    (250 m%)
    ac: freq = 2.371 MHz   (83.8 %), step = 132.7 kHz    (250 m%)
    ac: freq = 2.512 MHz     (84 %), step = 140.5 kHz    (250 m%)
    ac: freq = 2.661 MHz   (84.2 %), step = 148.8 kHz    (250 m%)
    ac: freq = 2.818 MHz   (84.5 %), step = 157.7 kHz    (250 m%)
    ac: freq = 2.985 MHz   (84.8 %), step = 167 kHz      (250 m%)
    ac: freq = 3.162 MHz     (85 %), step = 176.9 kHz    (250 m%)
    ac: freq = 3.35 MHz    (85.2 %), step = 187.4 kHz    (250 m%)
    ac: freq = 3.548 MHz   (85.5 %), step = 198.5 kHz    (250 m%)
    ac: freq = 3.758 MHz   (85.8 %), step = 210.2 kHz    (250 m%)
    ac: freq = 3.981 MHz     (86 %), step = 222.7 kHz    (250 m%)
    ac: freq = 4.217 MHz   (86.2 %), step = 235.9 kHz    (250 m%)
    ac: freq = 4.467 MHz   (86.5 %), step = 249.9 kHz    (250 m%)
    ac: freq = 4.732 MHz   (86.8 %), step = 264.7 kHz    (250 m%)
    ac: freq = 5.012 MHz     (87 %), step = 280.4 kHz    (250 m%)
    ac: freq = 5.309 MHz   (87.2 %), step = 297 kHz      (250 m%)
    ac: freq = 5.623 MHz   (87.5 %), step = 314.6 kHz    (250 m%)
    ac: freq = 5.957 MHz   (87.8 %), step = 333.2 kHz    (250 m%)
    ac: freq = 6.31 MHz      (88 %), step = 353 kHz      (250 m%)
    ac: freq = 6.683 MHz   (88.2 %), step = 373.9 kHz    (250 m%)
    ac: freq = 7.079 MHz   (88.5 %), step = 396 kHz      (250 m%)
    ac: freq = 7.499 MHz   (88.8 %), step = 419.5 kHz    (250 m%)
    ac: freq = 7.943 MHz     (89 %), step = 444.3 kHz    (250 m%)
    ac: freq = 8.414 MHz   (89.2 %), step = 470.7 kHz    (250 m%)
    ac: freq = 8.913 MHz   (89.5 %), step = 498.6 kHz    (250 m%)
    ac: freq = 9.441 MHz   (89.8 %), step = 528.1 kHz    (250 m%)
    ac: freq = 10 MHz        (90 %), step = 559.4 kHz    (250 m%)
    ac: freq = 10.59 MHz   (90.2 %), step = 592.5 kHz    (250 m%)
    ac: freq = 11.22 MHz   (90.5 %), step = 627.6 kHz    (250 m%)
    ac: freq = 11.89 MHz   (90.8 %), step = 664.8 kHz    (250 m%)
    ac: freq = 12.59 MHz     (91 %), step = 704.2 kHz    (250 m%)
    ac: freq = 13.34 MHz   (91.2 %), step = 746 kHz      (250 m%)
    ac: freq = 14.13 MHz   (91.5 %), step = 790.2 kHz    (250 m%)
    ac: freq = 14.96 MHz   (91.8 %), step = 837 kHz      (250 m%)
    ac: freq = 15.85 MHz     (92 %), step = 886.6 kHz    (250 m%)
    ac: freq = 16.79 MHz   (92.2 %), step = 939.1 kHz    (250 m%)
    ac: freq = 17.78 MHz   (92.5 %), step = 994.8 kHz    (250 m%)
    ac: freq = 18.84 MHz   (92.8 %), step = 1.054 MHz    (250 m%)
    ac: freq = 19.95 MHz     (93 %), step = 1.116 MHz    (250 m%)
    ac: freq = 21.13 MHz   (93.2 %), step = 1.182 MHz    (250 m%)
    ac: freq = 22.39 MHz   (93.5 %), step = 1.252 MHz    (250 m%)
    ac: freq = 23.71 MHz   (93.8 %), step = 1.327 MHz    (250 m%)
    ac: freq = 25.12 MHz     (94 %), step = 1.405 MHz    (250 m%)
    ac: freq = 26.61 MHz   (94.2 %), step = 1.488 MHz    (250 m%)
    ac: freq = 28.18 MHz   (94.5 %), step = 1.577 MHz    (250 m%)
    ac: freq = 29.85 MHz   (94.8 %), step = 1.67 MHz     (250 m%)
    ac: freq = 31.62 MHz     (95 %), step = 1.769 MHz    (250 m%)
    ac: freq = 33.5 MHz    (95.2 %), step = 1.874 MHz    (250 m%)
    ac: freq = 35.48 MHz   (95.5 %), step = 1.985 MHz    (250 m%)
    ac: freq = 37.58 MHz   (95.8 %), step = 2.102 MHz    (250 m%)
    ac: freq = 39.81 MHz     (96 %), step = 2.227 MHz    (250 m%)
    ac: freq = 42.17 MHz   (96.2 %), step = 2.359 MHz    (250 m%)
    ac: freq = 44.67 MHz   (96.5 %), step = 2.499 MHz    (250 m%)
    ac: freq = 47.32 MHz   (96.8 %), step = 2.647 MHz    (250 m%)
    ac: freq = 50.12 MHz     (97 %), step = 2.804 MHz    (250 m%)
    ac: freq = 53.09 MHz   (97.2 %), step = 2.97 MHz     (250 m%)
    ac: freq = 56.23 MHz   (97.5 %), step = 3.146 MHz    (250 m%)
    ac: freq = 59.57 MHz   (97.8 %), step = 3.332 MHz    (250 m%)
    ac: freq = 63.1 MHz      (98 %), step = 3.53 MHz     (250 m%)
    ac: freq = 66.83 MHz   (98.2 %), step = 3.739 MHz    (250 m%)
    ac: freq = 70.79 MHz   (98.5 %), step = 3.96 MHz     (250 m%)
    ac: freq = 74.99 MHz   (98.8 %), step = 4.195 MHz    (250 m%)
    ac: freq = 79.43 MHz     (99 %), step = 4.443 MHz    (250 m%)
    ac: freq = 84.14 MHz   (99.2 %), step = 4.707 MHz    (250 m%)
    ac: freq = 89.13 MHz   (99.5 %), step = 4.986 MHz    (250 m%)
    ac: freq = 94.41 MHz   (99.8 %), step = 5.281 MHz    (250 m%)
    ac: freq = 100 MHz      (100 %), step = 5.594 MHz    (250 m%)
Accumulated DC solution time =            43.869 us.
Intrinsic ac analysis time =              16.6383 ms.
Total time required for ac analysis `ac': CPU = 8.443 ms, elapsed = 16.7601 ms, util. = 50.4%.
Time accumulated: CPU = 377.374 ms, elapsed = 718.871 ms.
Peak resident memory used = 219 Mbytes.


****************
PZ Analysis `pz'
****************

Warning from spectre during PZ analysis `pz'.
    WARNING: BSIM3v3 MOS Transistor - frequency dependent components are present in the circuit, approximated as AC equivalents at 1.000000e+00Hz for pz analysis.


Opening the PSF file ../psf/pz.pz ...
Convergence achieved in 2 iterations.
DC simulation time: CPU = 171 us, elapsed = 195.026 us.
                      Poles (Hz)

           Real                       Imaginary                 Qfactor

   1   -1.59148e+00                  0.00000e+00              5.00000e-01 
   2   -5.11924e+06              +/- 6.09286e+06              7.77262e-01 
   3   -2.49434e+07                  0.00000e+00              5.00000e-01 
   4   -8.24646e+07                  0.00000e+00              5.00000e-01 

                      Zeros (Hz)
                      at V(VOUT,0)/I7

           Real                       Imaginary                 Qfactor

   1    0.00000e+00                  0.00000e+00              nan         
   2   -1.87938e+08              +/- 3.38818e+07              5.08060e-01 
   3    3.25204e+08                  0.00000e+00              -5.00000e-01

Constant factor =  6.90103e+10

DC gain =  9.99996e+04


Warning from spectre at 0 during PZ analysis `pz'.
    WARNING (UWI-8101): The specified waveform format 'psf' (improper context for requested action) could not be added. The simulator will ignore the waveform. Check the application programming interface (API) before running the simulation again.
    WARNING (UWI-8101): The specified waveform format 'psf' (improper context for requested action) could not be added. The simulator will ignore the waveform. Check the application programming interface (API) before running the simulation again.
    WARNING (UWI-8101): The specified waveform format 'psf' (improper context for requested action) could not be added. The simulator will ignore the waveform. Check the application programming interface (API) before running the simulation again.
    WARNING (UWI-8101): The specified waveform format 'psf' (improper context for requested action) could not be added. The simulator will ignore the waveform. Check the application programming interface (API) before running the simulation again.
    WARNING (UWI-8101): The specified waveform format 'psf' (improper context for requested action) could not be added. The simulator will ignore the waveform. Check the application programming interface (API) before running the simulation again.
        Further occurrences of this warning will be suppressed.

Accumulated DC solution time =            226.974 us.
Intrinsic pz analysis time =              12.378 ms.
Total time required for pz analysis `pz': CPU = 7.047 ms, elapsed = 12.6822 ms, util. = 55.6%.
Time accumulated: CPU = 384.712 ms, elapsed = 735.537 ms.
Peak resident memory used = 224 Mbytes.


Notice from spectre.
    6 warnings suppressed.

modelParameter: writing model parameter values to rawfile.

Opening the PSF file ../psf/modelParameter.info ...
element: writing instance parameter values to rawfile.

Opening the PSF file ../psf/element.info ...
outputParameter: writing output parameter values to rawfile.

Opening the PSF file ../psf/outputParameter.info ...
designParamVals: writing netlist parameters to rawfile.

Opening the PSFASCII file ../psf/designParamVals.info ...
primitives: writing primitives to rawfile.

Opening the PSFASCII file ../psf/primitives.info.primitives ...
subckts: writing subcircuits to rawfile.

Opening the PSFASCII file ../psf/subckts.info.subckts ...
Licensing Information:
Lic Summary:
[12:25:16.241321] Cdslmd servers:3000@lic08.ug.kth.se
[12:25:16.241370] Feature usage summary:
[12:25:16.241371] Virtuoso_Multi_mode_Simulation


Aggregate audit (12:25:16 PM, Fri Nov 21, 2025):
Time used: CPU = 400 ms, elapsed = 794 ms, util. = 50.4%.
Time spent in licensing: elapsed = 264 ms, percentage of total = 33.3%.
Peak memory used = 226 Mbytes.
Simulation started at: 12:25:15 PM, Fri Nov 21, 2025, ended at: 12:25:16 PM, Fri Nov 21, 2025, with elapsed time (wall clock): 794 ms.
spectre completes with 0 errors, 6 warnings, and 7 notices.
