*
*
*
*                       LINUX           Wed Sep  3 16:08:43 2025
*
*
*
*  PROGRAM  advgen
*
*  Name           : advgen - Quantus - (64-bit)
*  Version        : 24.1.0-p089
*  Build Date     : Wed Dec 18 09:06:09 PST 2024
*
*  HSPICE LIBRARY
*
* GLOBAL_TEMPERATURE 27
*  OPERATING_TEMPERATURE 27
*  QRC_TECH_DIR /opt/pdk/xfab/XKIT/xh018/cadence/v10_0/QRC_pvs/v10_0_1/XH018_1143/QRC-Typ 
*
*!LENGTH_UNITS METERS
*
*
*

*
.SUBCKT opamp1 BIAS GNDA INN INP OUT VDDA
*
*
*  caps2d version: 10
*
*
*       TRANSISTOR CARDS
*
*
MMM6@29	OUT#81	A#62	GNDA#364	GNDA#464	nel	L=2e-06
+ W=1e-05
+ AD=4.8e-12	AS=4.8e-12	PD=2.096e-05	PS=2.096e-05
+ NRD=0.0173	NRS=0.0173
MMM6@28	OUT#72	A#56	GNDA#340	GNDA#464	nel	L=2e-06
+ W=1e-05
+ AD=4.8e-12	AS=4.8e-12	PD=2.096e-05	PS=2.096e-05
+ NRD=0.0173	NRS=0.0173
MMM6@2	OUT#63	A#50	GNDA#316	GNDA#464	nel	L=2e-06
+ W=1e-05
+ AD=4.8e-12	AS=4.8e-12	PD=2.096e-05	PS=2.096e-05
+ NRD=0.0173	NRS=0.0173
MMM6@26	OUT#54	A#44	GNDA#292	GNDA#464	nel	L=2e-06
+ W=1e-05
+ AD=4.8e-12	AS=4.8e-12	PD=2.096e-05	PS=2.096e-05
+ NRD=0.0173	NRS=0.0173
MMM6@25	OUT#84	A#64	GNDA#367	GNDA#464	nel	L=2e-06
+ W=1e-05
+ AD=4.8e-12	AS=4.8e-12	PD=2.096e-05	PS=2.096e-05
+ NRD=0.0173	NRS=0.0173
MMM6@1	OUT#75	A#58	GNDA#343	GNDA#464	nel	L=2e-06
+ W=1e-05
+ AD=4.8e-12	AS=4.8e-12	PD=2.096e-05	PS=2.096e-05
+ NRD=0.0173	NRS=0.0173
MMM6@27	OUT#66	A#52	GNDA#319	GNDA#464	nel	L=2e-06
+ W=1e-05
+ AD=4.8e-12	AS=4.8e-12	PD=2.096e-05	PS=2.096e-05
+ NRD=0.0173	NRS=0.0173
MMM6@7	OUT#57	A#46	GNDA#295	GNDA#464	nel	L=2e-06
+ W=1e-05
+ AD=4.8e-12	AS=4.8e-12	PD=2.096e-05	PS=2.096e-05
+ NRD=0.0173	NRS=0.0173
MMM6@6	OUT#87	A#66	GNDA#370	GNDA#464	nel	L=2e-06
+ W=1e-05
+ AD=4.8e-12	AS=4.8e-12	PD=2.096e-05	PS=2.096e-05
+ NRD=0.0173	NRS=0.0173
MMM6@9	OUT#78	A#60	GNDA#346	GNDA#464	nel	L=2e-06
+ W=1e-05
+ AD=4.8e-12	AS=4.8e-12	PD=2.096e-05	PS=2.096e-05
+ NRD=0.0173	NRS=0.0173
MMM6@4	OUT#69	A#54	GNDA#322	GNDA#464	nel	L=2e-06
+ W=1e-05
+ AD=4.8e-12	AS=4.8e-12	PD=2.096e-05	PS=2.096e-05
+ NRD=0.0173	NRS=0.0173
MMM6@3	OUT#60	A#48	GNDA#298	GNDA#464	nel	L=2e-06
+ W=1e-05
+ AD=4.8e-12	AS=4.8e-12	PD=2.096e-05	PS=2.096e-05
+ NRD=0.0173	NRS=0.0173
MMM2@2	net5#25	A#38	GNDA#270	GNDA#464	nel	L=2e-06
+ W=1e-05
+ AD=4.8e-12	AS=4.8e-12	PD=2.096e-05	PS=2.096e-05
+ NRD=0.0173	NRS=0.0173
MMM2@3	net5#19	A#32	GNDA#245	GNDA#464	nel	L=2e-06
+ W=1e-05
+ AD=4.8e-12	AS=4.8e-12	PD=2.096e-05	PS=2.096e-05
+ NRD=0.0173	NRS=0.0173
MMM6@8	OUT#45	A#26	GNDA#219	GNDA#464	nel	L=2e-06
+ W=1e-05
+ AD=4.8e-12	AS=4.8e-12	PD=2.096e-05	PS=2.096e-05
+ NRD=0.0173	NRS=0.0173
MMM6@5	OUT#36	A#20	GNDA#195	GNDA#464	nel	L=2e-06
+ W=1e-05
+ AD=4.8e-12	AS=4.8e-12	PD=2.096e-05	PS=2.096e-05
+ NRD=0.0173	NRS=0.0173
MMM7	A#170	A#40	GNDA#273	GNDA#464	nel	L=2e-06
+ W=1e-05
+ AD=4.8e-12	AS=4.8e-12	PD=2.096e-05	PS=2.096e-05
+ NRD=0.0173	NRS=0.0173
MMM7@1	A#155	A#34	GNDA#248	GNDA#464	nel	L=2e-06
+ W=1e-05
+ AD=4.8e-12	AS=4.8e-12	PD=2.096e-05	PS=2.096e-05
+ NRD=0.0173	NRS=0.0173
MMM6@11	OUT#48	A#28	GNDA#222	GNDA#464	nel	L=2e-06
+ W=1e-05
+ AD=4.8e-12	AS=4.8e-12	PD=2.096e-05	PS=2.096e-05
+ NRD=0.0173	NRS=0.0173
MMM6@13	OUT#39	A#22	GNDA#198	GNDA#464	nel	L=2e-06
+ W=1e-05
+ AD=4.8e-12	AS=4.8e-12	PD=2.096e-05	PS=2.096e-05
+ NRD=0.0173	NRS=0.0173
MMM2	net5#28	A#42	GNDA#276	GNDA#464	nel	L=2e-06
+ W=1e-05
+ AD=4.8e-12	AS=4.8e-12	PD=2.096e-05	PS=2.096e-05
+ NRD=0.0173	NRS=0.0173
MMM2@1	net5#22	A#36	GNDA#251	GNDA#464	nel	L=2e-06
+ W=1e-05
+ AD=4.8e-12	AS=4.8e-12	PD=2.096e-05	PS=2.096e-05
+ NRD=0.0173	NRS=0.0173
MMM6@12	OUT#51	A#30	GNDA#225	GNDA#464	nel	L=2e-06
+ W=1e-05
+ AD=4.8e-12	AS=4.8e-12	PD=2.096e-05	PS=2.096e-05
+ NRD=0.0173	NRS=0.0173
MMM6	OUT#42	A#24	GNDA#201	GNDA#464	nel	L=2e-06
+ W=1e-05
+ AD=4.8e-12	AS=4.8e-12	PD=2.096e-05	PS=2.096e-05
+ NRD=0.0173	NRS=0.0173
MMM6@10	OUT#27	A#14	GNDA#171	GNDA#464	nel	L=2e-06
+ W=1e-05
+ AD=4.8e-12	AS=4.8e-12	PD=2.096e-05	PS=2.096e-05
+ NRD=0.0173	NRS=0.0173
MMM6@20	OUT#18	A#8	GNDA#147	GNDA#464	nel	L=2e-06
+ W=1e-05
+ AD=4.8e-12	AS=4.8e-12	PD=2.096e-05	PS=2.096e-05
+ NRD=0.0173	NRS=0.0173
MMM6@19	OUT#9	A#2	GNDA#123	GNDA#464	nel	L=2e-06
+ W=1e-05
+ AD=4.8e-12	AS=4.8e-12	PD=2.096e-05	PS=2.096e-05
+ NRD=0.0173	NRS=0.0173
MMM13@27	GNDA#112	GNDA#12	GNDA#78	GNDA#464
+ nel	L=2e-06	W=1e-05
+ AD=4.8e-12	AS=4.8e-12	PD=2.096e-05	PS=2.096e-05
+ NRD=0.0173	NRS=0.0173
MMM6@21	OUT#30	A#16	GNDA#174	GNDA#464	nel	L=2e-06
+ W=1e-05
+ AD=4.8e-12	AS=4.8e-12	PD=2.096e-05	PS=2.096e-05
+ NRD=0.0173	NRS=0.0173
MMM6@22	OUT#21	A#10	GNDA#150	GNDA#464	nel	L=2e-06
+ W=1e-05
+ AD=4.8e-12	AS=4.8e-12	PD=2.096e-05	PS=2.096e-05
+ NRD=0.0173	NRS=0.0173
MMM6@14	OUT#12	A#4	GNDA#126	GNDA#464	nel	L=2e-06
+ W=1e-05
+ AD=4.8e-12	AS=4.8e-12	PD=2.096e-05	PS=2.096e-05
+ NRD=0.0173	NRS=0.0173
MMM13@21	GNDA#115	GNDA#14	GNDA#81	GNDA#464
+ nel	L=2e-06	W=1e-05
+ AD=4.8e-12	AS=4.8e-12	PD=2.096e-05	PS=2.096e-05
+ NRD=0.0173	NRS=0.0173
MMM6@18	OUT#33	A#18	GNDA#177	GNDA#464	nel	L=2e-06
+ W=1e-05
+ AD=4.8e-12	AS=4.8e-12	PD=2.096e-05	PS=2.096e-05
+ NRD=0.0173	NRS=0.0173
MMM6@17	OUT#24	A#12	GNDA#153	GNDA#464	nel	L=2e-06
+ W=1e-05
+ AD=4.8e-12	AS=4.8e-12	PD=2.096e-05	PS=2.096e-05
+ NRD=0.0173	NRS=0.0173
MMM6@24	OUT#15	A#6	GNDA#129	GNDA#464	nel	L=2e-06
+ W=1e-05
+ AD=4.8e-12	AS=4.8e-12	PD=2.096e-05	PS=2.096e-05
+ NRD=0.0173	NRS=0.0173
MMM13@24	GNDA#118	GNDA#16	GNDA#84	GNDA#464
+ nel	L=2e-06	W=1e-05
+ AD=4.8e-12	AS=4.8e-12	PD=2.096e-05	PS=2.096e-05
+ NRD=0.0173	NRS=0.0173
MMM13@23	GNDA#446	GNDA#71	GNDA#412	GNDA#464
+ nel	L=2e-06	W=1e-05
+ AD=4.8e-12	AS=4.8e-12	PD=2.096e-05	PS=2.096e-05
+ NRD=0.0173	NRS=0.0173
MMM6@16	OUT#90	A#68	GNDA#388	GNDA#464	nel	L=2e-06
+ W=1e-05
+ AD=4.8e-12	AS=4.8e-12	PD=2.096e-05	PS=2.096e-05
+ NRD=0.0173	NRS=0.0173
MMM13@26	GNDA#449	GNDA#73	GNDA#415	GNDA#464
+ nel	L=2e-06	W=1e-05
+ AD=4.8e-12	AS=4.8e-12	PD=2.096e-05	PS=2.096e-05
+ NRD=0.0173	NRS=0.0173
MMM6@15	OUT#93	A#70	GNDA#391	GNDA#464	nel	L=2e-06
+ W=1e-05
+ AD=4.8e-12	AS=4.8e-12	PD=2.096e-05	PS=2.096e-05
+ NRD=0.0173	NRS=0.0173
MMM13@25	GNDA#452	GNDA#75	GNDA#418	GNDA#464
+ nel	L=2e-06	W=1e-05
+ AD=4.8e-12	AS=4.8e-12	PD=2.096e-05	PS=2.096e-05
+ NRD=0.0173	NRS=0.0173
MMM6@23	OUT#96	A#72	GNDA#394	GNDA#464	nel	L=2e-06
+ W=1e-05
+ AD=4.8e-12	AS=4.8e-12	PD=2.096e-05	PS=2.096e-05
+ NRD=0.0173	NRS=0.0173
MMM13@22	GNDA#439	GNDA#68	GNDA#442	GNDA#464
+ nel	L=2e-06	W=1e-06
+ AD=4.8e-13	AS=4.8e-13	PD=2.96e-06	PS=2.96e-06
+ NRD=0.173	NRS=0.173
MMM12@2	GNDA#403	GNDA#64	GNDA#406	GNDA#464	nel
+ L=2e-06	W=1e-06
+ AD=4.8e-13	AS=4.8e-13	PD=2.96e-06	PS=2.96e-06
+ NRD=0.173	NRS=0.173
MMM13@19	GNDA#455	GNDA#76	GNDA#421	GNDA#464
+ nel	L=2e-06	W=1e-06
+ AD=4.8e-13	AS=4.8e-13	PD=2.96e-06	PS=2.96e-06
+ NRD=0.173	NRS=0.173
MMM12@1	GNDA#410	GNDA#66	GNDA#397	GNDA#464	nel
+ L=2e-06	W=1e-06
+ AD=4.8e-13	AS=4.8e-13	PD=2.96e-06	PS=2.96e-06
+ NRD=0.173	NRS=0.173
MMM13@16	GNDA#379	GNDA#60	GNDA#382	GNDA#464
+ nel	L=2e-06	W=1e-06
+ AD=4.8e-13	AS=4.8e-13	PD=2.96e-06	PS=2.96e-06
+ NRD=0.173	NRS=0.173
MMM13@17	GNDA#355	GNDA#56	GNDA#358	GNDA#464
+ nel	L=2e-06	W=1e-06
+ AD=4.8e-13	AS=4.8e-13	PD=2.96e-06	PS=2.96e-06
+ NRD=0.173	NRS=0.173
MMM13@20	GNDA#386	GNDA#62	GNDA#373	GNDA#464
+ nel	L=2e-06	W=1e-06
+ AD=4.8e-13	AS=4.8e-13	PD=2.96e-06	PS=2.96e-06
+ NRD=0.173	NRS=0.173
MMM12@5	GNDA#362	GNDA#58	GNDA#349	GNDA#464	nel
+ L=2e-06	W=1e-06
+ AD=4.8e-13	AS=4.8e-13	PD=2.96e-06	PS=2.96e-06
+ NRD=0.173	NRS=0.173
MMM12@4	GNDA#331	GNDA#52	GNDA#334	GNDA#464	nel
+ L=2e-06	W=1e-06
+ AD=4.8e-13	AS=4.8e-13	PD=2.96e-06	PS=2.96e-06
+ NRD=0.173	NRS=0.173
MMM12@3	GNDA#307	GNDA#48	GNDA#310	GNDA#464	nel
+ L=2e-06	W=1e-06
+ AD=4.8e-13	AS=4.8e-13	PD=2.96e-06	PS=2.96e-06
+ NRD=0.173	NRS=0.173
MMM13@18	GNDA#338	GNDA#54	GNDA#325	GNDA#464
+ nel	L=2e-06	W=1e-06
+ AD=4.8e-13	AS=4.8e-13	PD=2.96e-06	PS=2.96e-06
+ NRD=0.173	NRS=0.173
MMM13@8	GNDA#314	GNDA#50	GNDA#301	GNDA#464	nel
+ L=2e-06	W=1e-06
+ AD=4.8e-13	AS=4.8e-13	PD=2.96e-06	PS=2.96e-06
+ NRD=0.173	NRS=0.173
MMM13@4	GNDA#283	GNDA#44	GNDA#286	GNDA#464	nel
+ L=2e-06	W=1e-06
+ AD=4.8e-13	AS=4.8e-13	PD=2.96e-06	PS=2.96e-06
+ NRD=0.173	NRS=0.173
MMM13@6	GNDA#259	GNDA#39	GNDA#262	GNDA#464	nel
+ L=2e-06	W=1e-06
+ AD=4.8e-13	AS=4.8e-13	PD=2.96e-06	PS=2.96e-06
+ NRD=0.173	NRS=0.173
MMM13@5	GNDA#290	GNDA#46	GNDA#269	GNDA#464	nel
+ L=2e-06	W=1e-06
+ AD=4.8e-13	AS=4.8e-13	PD=2.96e-06	PS=2.96e-06
+ NRD=0.173	NRS=0.173
MMM13@1	GNDA#266	GNDA#41	GNDA#244	GNDA#464	nel
+ L=2e-06	W=1e-06
+ AD=4.8e-13	AS=4.8e-13	PD=2.96e-06	PS=2.96e-06
+ NRD=0.173	NRS=0.173
MMM13	GNDA#234	GNDA#35	GNDA#237	GNDA#464	nel
+ L=2e-06	W=1e-06
+ AD=4.8e-13	AS=4.8e-13	PD=2.96e-06	PS=2.96e-06
+ NRD=0.173	NRS=0.173
MMM13@3	GNDA#210	GNDA#31	GNDA#213	GNDA#464	nel
+ L=2e-06	W=1e-06
+ AD=4.8e-13	AS=4.8e-13	PD=2.96e-06	PS=2.96e-06
+ NRD=0.173	NRS=0.173
MMM13@2	GNDA#241	GNDA#37	GNDA#228	GNDA#464	nel
+ L=2e-06	W=1e-06
+ AD=4.8e-13	AS=4.8e-13	PD=2.96e-06	PS=2.96e-06
+ NRD=0.173	NRS=0.173
MMM12	GNDA#217	GNDA#33	GNDA#204	GNDA#464	nel
+ L=2e-06	W=1e-06
+ AD=4.8e-13	AS=4.8e-13	PD=2.96e-06	PS=2.96e-06
+ NRD=0.173	NRS=0.173
MMM13@11	GNDA#186	GNDA#27	GNDA#189	GNDA#464
+ nel	L=2e-06	W=1e-06
+ AD=4.8e-13	AS=4.8e-13	PD=2.96e-06	PS=2.96e-06
+ NRD=0.173	NRS=0.173
MMM13@14	GNDA#162	GNDA#23	GNDA#165	GNDA#464
+ nel	L=2e-06	W=1e-06
+ AD=4.8e-13	AS=4.8e-13	PD=2.96e-06	PS=2.96e-06
+ NRD=0.173	NRS=0.173
MMM13@13	GNDA#193	GNDA#29	GNDA#180	GNDA#464
+ nel	L=2e-06	W=1e-06
+ AD=4.8e-13	AS=4.8e-13	PD=2.96e-06	PS=2.96e-06
+ NRD=0.173	NRS=0.173
MMM13@12	GNDA#169	GNDA#25	GNDA#156	GNDA#464
+ nel	L=2e-06	W=1e-06
+ AD=4.8e-13	AS=4.8e-13	PD=2.96e-06	PS=2.96e-06
+ NRD=0.173	NRS=0.173
MMM13@7	GNDA#138	GNDA#19	GNDA#141	GNDA#464	nel
+ L=2e-06	W=1e-06
+ AD=4.8e-13	AS=4.8e-13	PD=2.96e-06	PS=2.96e-06
+ NRD=0.173	NRS=0.173
MMM13@10	GNDA#105	GNDA#9	GNDA#108	GNDA#464	nel
+ L=2e-06	W=1e-06
+ AD=4.8e-13	AS=4.8e-13	PD=2.96e-06	PS=2.96e-06
+ NRD=0.173	NRS=0.173
MMM13@9	GNDA#145	GNDA#21	GNDA#132	GNDA#464	nel
+ L=2e-06	W=1e-06
+ AD=4.8e-13	AS=4.8e-13	PD=2.96e-06	PS=2.96e-06
+ NRD=0.173	NRS=0.173
MMM13@15	GNDA#121	GNDA#17	GNDA#87	GNDA#464
+ nel	L=2e-06	W=1e-06
+ AD=4.8e-13	AS=4.8e-13	PD=2.96e-06	PS=2.96e-06
+ NRD=0.173	NRS=0.173
MMM10@3	GNDA#460	GNDA#6	GNDA#457	GNDA#464	nel	L=1e-06
+ W=1e-05
+ AD=4.8e-12	AS=4.8e-12	PD=2.096e-05	PS=2.096e-05
+ NRD=0.0173	NRS=0.0173
MMM10@1	GNDA#501	GNDA#8	GNDA#505	GNDA#464	nel	L=1e-06
+ W=1e-05
+ AD=4.8e-12	AS=4.8e-12	PD=2.096e-05	PS=2.096e-05
+ NRD=0.0173	NRS=0.0173
MMM1@3	D#130	INN#20	B#59	GNDA#464	nel	L=1e-06	W=1e-05
+ AD=4.8e-12	AS=4.8e-12	PD=2.096e-05	PS=2.096e-05
+ NRD=0.0173	NRS=0.0173
MMM0@8	C#66	INP#20	B#62	GNDA#464	nel	L=1e-06	W=1e-05
+ AD=4.8e-12	AS=4.8e-12	PD=2.096e-05	PS=2.096e-05
+ NRD=0.0173	NRS=0.0173
MMM0@5	C#63	INP#18	B#51	GNDA#464	nel	L=1e-06	W=1e-05
+ AD=4.8e-12	AS=4.8e-12	PD=2.096e-05	PS=2.096e-05
+ NRD=0.0173	NRS=0.0173
MMM1	D#127	INN#18	B#54	GNDA#464	nel	L=1e-06	W=1e-05
+ AD=4.8e-12	AS=4.8e-12	PD=2.096e-05	PS=2.096e-05
+ NRD=0.0173	NRS=0.0173
MMM1@7	D#114	INN#16	B#43	GNDA#464	nel	L=1e-06	W=1e-05
+ AD=4.8e-12	AS=4.8e-12	PD=2.096e-05	PS=2.096e-05
+ NRD=0.0173	NRS=0.0173
MMM0@3	C#57	INP#16	B#46	GNDA#464	nel	L=1e-06	W=1e-05
+ AD=4.8e-12	AS=4.8e-12	PD=2.096e-05	PS=2.096e-05
+ NRD=0.0173	NRS=0.0173
MMM0	C#51	INP#14	B#37	GNDA#464	nel	L=1e-06	W=1e-05
+ AD=4.8e-12	AS=4.8e-12	PD=2.096e-05	PS=2.096e-05
+ NRD=0.0173	NRS=0.0173
MMM1@1	D#101	INN#14	B#40	GNDA#464	nel	L=1e-06	W=1e-05
+ AD=4.8e-12	AS=4.8e-12	PD=2.096e-05	PS=2.096e-05
+ NRD=0.0173	NRS=0.0173
MMM1@8	D#95	INN#12	B#31	GNDA#464	nel	L=1e-06	W=1e-05
+ AD=4.8e-12	AS=4.8e-12	PD=2.096e-05	PS=2.096e-05
+ NRD=0.0173	NRS=0.0173
MMM0@4	C#45	INP#12	B#34	GNDA#464	nel	L=1e-06	W=1e-05
+ AD=4.8e-12	AS=4.8e-12	PD=2.096e-05	PS=2.096e-05
+ NRD=0.0173	NRS=0.0173
MMM0@7	C#42	INP#10	B#25	GNDA#464	nel	L=1e-06	W=1e-05
+ AD=4.8e-12	AS=4.8e-12	PD=2.096e-05	PS=2.096e-05
+ NRD=0.0173	NRS=0.0173
MMM1@5	D#85	INN#10	B#28	GNDA#464	nel	L=1e-06	W=1e-05
+ AD=4.8e-12	AS=4.8e-12	PD=2.096e-05	PS=2.096e-05
+ NRD=0.0173	NRS=0.0173
MMM1@2	D#72	INN#8	B#19	GNDA#464	nel	L=1e-06	W=1e-05
+ AD=4.8e-12	AS=4.8e-12	PD=2.096e-05	PS=2.096e-05
+ NRD=0.0173	NRS=0.0173
MMM0@9	C#36	INP#8	B#22	GNDA#464	nel	L=1e-06	W=1e-05
+ AD=4.8e-12	AS=4.8e-12	PD=2.096e-05	PS=2.096e-05
+ NRD=0.0173	NRS=0.0173
MMM0@2	C#30	INP#6	B#13	GNDA#464	nel	L=1e-06	W=1e-05
+ AD=4.8e-12	AS=4.8e-12	PD=2.096e-05	PS=2.096e-05
+ NRD=0.0173	NRS=0.0173
MMM1@4	D#66	INN#6	B#16	GNDA#464	nel	L=1e-06	W=1e-05
+ AD=4.8e-12	AS=4.8e-12	PD=2.096e-05	PS=2.096e-05
+ NRD=0.0173	NRS=0.0173
MMM1@9	D#56	INN#4	B#7	GNDA#464	nel	L=1e-06	W=1e-05
+ AD=4.8e-12	AS=4.8e-12	PD=2.096e-05	PS=2.096e-05
+ NRD=0.0173	NRS=0.0173
MMM0@1	C#27	INP#4	B#10	GNDA#464	nel	L=1e-06	W=1e-05
+ AD=4.8e-12	AS=4.8e-12	PD=2.096e-05	PS=2.096e-05
+ NRD=0.0173	NRS=0.0173
MMM0@6	C#21	INP#2	B	GNDA#464	nel	L=1e-06	W=1e-05
+ AD=4.8e-12	AS=4.8e-12	PD=2.096e-05	PS=2.096e-05
+ NRD=0.0173	NRS=0.0173
MMM1@6	D#43	INN#2	B#4	GNDA#464	nel	L=1e-06	W=1e-05
+ AD=4.8e-12	AS=4.8e-12	PD=2.096e-05	PS=2.096e-05
+ NRD=0.0173	NRS=0.0173
MMM10@2	GNDA#489	GNDA#2	GNDA#485	GNDA#464	nel	L=1e-06
+ W=1e-05
+ AD=4.8e-12	AS=4.8e-12	PD=2.096e-05	PS=2.096e-05
+ NRD=0.0173	NRS=0.0173
MMM10	GNDA#495	GNDA#4	GNDA#491	GNDA#464	nel	L=1e-06
+ W=1e-05
+ AD=4.8e-12	AS=4.8e-12	PD=2.096e-05	PS=2.096e-05
+ NRD=0.0173	NRS=0.0173
MMM8@5	BIAS#47	BIAS#9	A#73	GNDA#464	nel	L=2.5e-07
+ W=5e-06
+ AD=1.35e-12	AS=2.4e-12	PD=5.54e-06	PS=1.096e-05
+ NRD=0.0346	NRS=0.0346
MMM8@3	BIAS#47	BIAS#15	A#75	GNDA#464	nel
+ L=2.5e-07	W=5e-06
+ AD=1.35e-12	AS=1.35e-12	PD=5.54e-06	PS=5.54e-06
+ NRD=0.0346	NRS=0.0346
MMM8@2	BIAS#49	BIAS#14	A#75	GNDA#464	nel
+ L=2.5e-07	W=5e-06
+ AD=1.35e-12	AS=1.35e-12	PD=5.54e-06	PS=5.54e-06
+ NRD=0.0346	NRS=0.0346
MMM8	BIAS#49	BIAS#13	A#77	GNDA#464	nel
+ L=2.5e-07	W=5e-06
+ AD=1.35e-12	AS=1.35e-12	PD=5.54e-06	PS=5.54e-06
+ NRD=0.0346	NRS=0.0346
MMM8@6	BIAS#51	BIAS#12	A#77	GNDA#464	nel
+ L=2.5e-07	W=5e-06
+ AD=1.35e-12	AS=1.35e-12	PD=5.54e-06	PS=5.54e-06
+ NRD=0.0346	NRS=0.0346
MMM8@4	BIAS#51	BIAS#11	A#79	GNDA#464	nel
+ L=2.5e-07	W=5e-06
+ AD=1.35e-12	AS=1.35e-12	PD=5.54e-06	PS=5.54e-06
+ NRD=0.0346	NRS=0.0346
MMM8@1	BIAS#53	BIAS#10	A#79	GNDA#464	nel
+ L=2.5e-07	W=5e-06
+ AD=1.35e-12	AS=1.35e-12	PD=5.54e-06	PS=5.54e-06
+ NRD=0.0346	NRS=0.0346
MMM8@7	BIAS#53	BIAS#1	A#81	GNDA#464	nel	L=2.5e-07
+ W=5e-06
+ AD=1.35e-12	AS=2.4e-12	PD=5.54e-06	PS=1.096e-05
+ NRD=0.0346	NRS=0.0346
MMM9@8	B#49	BIAS#33	net5	GNDA#464	nel	L=2.5e-07
+ W=5e-06
+ AD=1.35e-12	AS=2.4e-12	PD=5.54e-06	PS=1.096e-05
+ NRD=0.0346	NRS=0.0346
MMM9@13	B#49	BIAS#46	net5#3	GNDA#464	nel	L=2.5e-07
+ W=5e-06
+ AD=1.35e-12	AS=1.35e-12	PD=5.54e-06	PS=5.54e-06
+ NRD=0.0346	NRS=0.0346
MMM9	B#57	BIAS#45	net5#3	GNDA#464	nel	L=2.5e-07
+ W=5e-06
+ AD=1.35e-12	AS=1.35e-12	PD=5.54e-06	PS=5.54e-06
+ NRD=0.0346	NRS=0.0346
MMM9@14	B#57	BIAS#44	net5#5	GNDA#464	nel	L=2.5e-07
+ W=5e-06
+ AD=1.35e-12	AS=1.35e-12	PD=5.54e-06	PS=5.54e-06
+ NRD=0.0346	NRS=0.0346
MMM9@10	B#65	BIAS#43	net5#5	GNDA#464	nel	L=2.5e-07
+ W=5e-06
+ AD=1.35e-12	AS=1.35e-12	PD=5.54e-06	PS=5.54e-06
+ NRD=0.0346	NRS=0.0346
MMM9@1	B#65	BIAS#42	net5#7	GNDA#464	nel	L=2.5e-07
+ W=5e-06
+ AD=1.35e-12	AS=1.35e-12	PD=5.54e-06	PS=5.54e-06
+ NRD=0.0346	NRS=0.0346
MMM9@7	B#67	BIAS#41	net5#7	GNDA#464	nel	L=2.5e-07
+ W=5e-06
+ AD=1.35e-12	AS=1.35e-12	PD=5.54e-06	PS=5.54e-06
+ NRD=0.0346	NRS=0.0346
MMM9@2	B#67	BIAS#40	net5#9	GNDA#464	nel	L=2.5e-07
+ W=5e-06
+ AD=1.35e-12	AS=1.35e-12	PD=5.54e-06	PS=5.54e-06
+ NRD=0.0346	NRS=0.0346
MMM9@4	B#69	BIAS#39	net5#9	GNDA#464	nel	L=2.5e-07
+ W=5e-06
+ AD=1.35e-12	AS=1.35e-12	PD=5.54e-06	PS=5.54e-06
+ NRD=0.0346	NRS=0.0346
MMM9@15	B#69	BIAS#38	net5#11	GNDA#464	nel
+ L=2.5e-07	W=5e-06
+ AD=1.35e-12	AS=1.35e-12	PD=5.54e-06	PS=5.54e-06
+ NRD=0.0346	NRS=0.0346
MMM9@9	B#71	BIAS#37	net5#11	GNDA#464	nel
+ L=2.5e-07	W=5e-06
+ AD=1.35e-12	AS=1.35e-12	PD=5.54e-06	PS=5.54e-06
+ NRD=0.0346	NRS=0.0346
MMM9@11	B#71	BIAS#36	net5#13	GNDA#464	nel
+ L=2.5e-07	W=5e-06
+ AD=1.35e-12	AS=1.35e-12	PD=5.54e-06	PS=5.54e-06
+ NRD=0.0346	NRS=0.0346
MMM9@5	B#73	BIAS#35	net5#13	GNDA#464	nel
+ L=2.5e-07	W=5e-06
+ AD=1.35e-12	AS=1.35e-12	PD=5.54e-06	PS=5.54e-06
+ NRD=0.0346	NRS=0.0346
MMM9@3	B#73	BIAS#34	net5#15	GNDA#464	nel
+ L=2.5e-07	W=5e-06
+ AD=1.35e-12	AS=1.35e-12	PD=5.54e-06	PS=5.54e-06
+ NRD=0.0346	NRS=0.0346
MMM9@6	B#75	BIAS#19	net5#15	GNDA#464	nel
+ L=2.5e-07	W=5e-06
+ AD=1.35e-12	AS=1.35e-12	PD=5.54e-06	PS=5.54e-06
+ NRD=0.0346	NRS=0.0346
MMM9@12	B#75	BIAS#16	net5#17	GNDA#464	nel
+ L=2.5e-07	W=5e-06
+ AD=1.35e-12	AS=2.4e-12	PD=5.54e-06	PS=1.096e-05
+ NRD=0.0346	NRS=0.0346
MMM11@3	VDDA#75	VDDA#6	VDDA#79	VDDA#111	pel	L=2e-06
+ W=1e-05
+ AD=4.8e-12	AS=4.8e-12	PD=2.096e-05	PS=2.096e-05
+ NRD=0.0173	NRS=0.0173
MMM11	VDDA#84	VDDA#8	VDDA#87	VDDA#111	pel	L=2e-06
+ W=1e-05
+ AD=4.8e-12	AS=4.8e-12	PD=2.096e-05	PS=2.096e-05
+ NRD=0.0173	NRS=0.0173
MMM3@5	D#140	D#30	VDDA#69	VDDA#111	pel	L=2e-06
+ W=1e-05
+ AD=4.8e-12	AS=4.8e-12	PD=2.096e-05	PS=2.096e-05
+ NRD=0.0173	NRS=0.0173
MMM4@5	C#69	D#32	VDDA#72	VDDA#111	pel	L=2e-06
+ W=1e-05
+ AD=4.8e-12	AS=4.8e-12	PD=2.096e-05	PS=2.096e-05
+ NRD=0.0173	NRS=0.0173
MMM4@1	C#60	D#26	VDDA#63	VDDA#111	pel	L=2e-06
+ W=1e-05
+ AD=4.8e-12	AS=4.8e-12	PD=2.096e-05	PS=2.096e-05
+ NRD=0.0173	NRS=0.0173
MMM3@4	D#124	D#28	VDDA#66	VDDA#111	pel	L=2e-06
+ W=1e-05
+ AD=4.8e-12	AS=4.8e-12	PD=2.096e-05	PS=2.096e-05
+ NRD=0.0173	NRS=0.0173
MMM3	D#111	D#22	VDDA#57	VDDA#111	pel	L=2e-06
+ W=1e-05
+ AD=4.8e-12	AS=4.8e-12	PD=2.096e-05	PS=2.096e-05
+ NRD=0.0173	NRS=0.0173
MMM4@7	C#54	D#24	VDDA#60	VDDA#111	pel	L=2e-06
+ W=1e-05
+ AD=4.8e-12	AS=4.8e-12	PD=2.096e-05	PS=2.096e-05
+ NRD=0.0173	NRS=0.0173
MMM4@6	C#48	D#18	VDDA#51	VDDA#111	pel	L=2e-06
+ W=1e-05
+ AD=4.8e-12	AS=4.8e-12	PD=2.096e-05	PS=2.096e-05
+ NRD=0.0173	NRS=0.0173
MMM3@7	D#98	D#20	VDDA#54	VDDA#111	pel	L=2e-06
+ W=1e-05
+ AD=4.8e-12	AS=4.8e-12	PD=2.096e-05	PS=2.096e-05
+ NRD=0.0173	NRS=0.0173
MMM4@2	C#39	D#14	VDDA#45	VDDA#111	pel	L=2e-06
+ W=1e-05
+ AD=4.8e-12	AS=4.8e-12	PD=2.096e-05	PS=2.096e-05
+ NRD=0.0173	NRS=0.0173
MMM3@2	D#82	D#16	VDDA#48	VDDA#111	pel	L=2e-06
+ W=1e-05
+ AD=4.8e-12	AS=4.8e-12	PD=2.096e-05	PS=2.096e-05
+ NRD=0.0173	NRS=0.0173
MMM3@3	D#69	D#10	VDDA#39	VDDA#111	pel	L=2e-06
+ W=1e-05
+ AD=4.8e-12	AS=4.8e-12	PD=2.096e-05	PS=2.096e-05
+ NRD=0.0173	NRS=0.0173
MMM4	C#33	D#12	VDDA#42	VDDA#111	pel	L=2e-06
+ W=1e-05
+ AD=4.8e-12	AS=4.8e-12	PD=2.096e-05	PS=2.096e-05
+ NRD=0.0173	NRS=0.0173
MMM4@4	C#24	D#6	VDDA#33	VDDA#111	pel	L=2e-06
+ W=1e-05
+ AD=4.8e-12	AS=4.8e-12	PD=2.096e-05	PS=2.096e-05
+ NRD=0.0173	NRS=0.0173
MMM3@1	D#53	D#8	VDDA#36	VDDA#111	pel	L=2e-06
+ W=1e-05
+ AD=4.8e-12	AS=4.8e-12	PD=2.096e-05	PS=2.096e-05
+ NRD=0.0173	NRS=0.0173
MMM3@6	D#40	D#2	VDDA#27	VDDA#111	pel	L=2e-06
+ W=1e-05
+ AD=4.8e-12	AS=4.8e-12	PD=2.096e-05	PS=2.096e-05
+ NRD=0.0173	NRS=0.0173
MMM4@3	C#18	D#4	VDDA#30	VDDA#111	pel	L=2e-06
+ W=1e-05
+ AD=4.8e-12	AS=4.8e-12	PD=2.096e-05	PS=2.096e-05
+ NRD=0.0173	NRS=0.0173
MMM11@1	VDDA#9	VDDA#2	VDDA#13	VDDA#111	pel	L=2e-06
+ W=1e-05
+ AD=4.8e-12	AS=4.8e-12	PD=2.096e-05	PS=2.096e-05
+ NRD=0.0173	NRS=0.0173
MMM11@2	VDDA#18	VDDA#4	VDDA#21	VDDA#111	pel	L=2e-06
+ W=1e-05
+ AD=4.8e-12	AS=4.8e-12	PD=2.096e-05	PS=2.096e-05
+ NRD=0.0173	NRS=0.0173
MMM5@4	OUT#7	C#3	VDDA#101	VDDA#103	pel	L=5e-07
+ W=2.5e-06
+ AD=6.75e-13	AS=1.2e-12	PD=3.04e-06	PS=5.96e-06
+ NRD=0.0692	NRS=0.0692
MMM5@5	OUT#7	C#12	VDDA#99	VDDA#103	pel	L=5e-07
+ W=2.5e-06
+ AD=6.75e-13	AS=6.75e-13	PD=3.04e-06	PS=3.04e-06
+ NRD=0.0692	NRS=0.0692
MMM5@1	OUT#5	C#13	VDDA#99	VDDA#103	pel	L=5e-07
+ W=2.5e-06
+ AD=6.75e-13	AS=6.75e-13	PD=3.04e-06	PS=3.04e-06
+ NRD=0.0692	NRS=0.0692
MMM5	OUT#5	C#14	VDDA#97	VDDA#103	pel	L=5e-07
+ W=2.5e-06
+ AD=6.75e-13	AS=6.75e-13	PD=3.04e-06	PS=3.04e-06
+ NRD=0.0692	NRS=0.0692
MMM5@2	OUT#3	C#15	VDDA#97	VDDA#103	pel	L=5e-07
+ W=2.5e-06
+ AD=6.75e-13	AS=6.75e-13	PD=3.04e-06	PS=3.04e-06
+ NRD=0.0692	NRS=0.0692
MMM5@3	OUT#3	C#16	VDDA#95	VDDA#103	pel	L=5e-07
+ W=2.5e-06
+ AD=6.75e-13	AS=6.75e-13	PD=3.04e-06	PS=3.04e-06
+ NRD=0.0692	NRS=0.0692
MMM5@7	OUT#1	C#17	VDDA#95	VDDA#103	pel	L=5e-07
+ W=2.5e-06
+ AD=6.75e-13	AS=6.75e-13	PD=3.04e-06	PS=3.04e-06
+ NRD=0.0692	NRS=0.0692
MMM5@6	OUT#1	C#11	VDDA#93	VDDA#103	pel	L=5e-07
+ W=2.5e-06
+ AD=6.75e-13	AS=1.2e-12	PD=3.04e-06	PS=5.96e-06
+ NRD=0.0692	NRS=0.0692
*
*
*       CANONICAL RESISTOR AND CAP/DIODE CARDS
*
RRR0	net6#2	C#2	rpp1k1_3 	L=0.00012448	W=2e-06
+ $SUB=VDDA#136 
*
*       PARASITIC RESISTOR AND CAP/DIODE CARDS
*
Rb13	net6#12	net6#25	0.002495	$METTP
+ $X=107.01 $Y=106.385
Rb26	net6#25	net6#38	0.002495	$METTP
+ $X=92.49 $Y=102.778
Rb39	net6#38	net6#51	0.002495	$METTP
+ $X=107.01 $Y=101.575
Rb52	net6#51	net6#64	0.002495	$METTP
+ $X=92.49 $Y=97.968
Rb65	net6#64	net6#77	0.001316	$METTP
+ $X=107.01 $Y=96.765
Rb66	net6#77	net6#10	0.798135	$METTP
+ $X=76.0875 $Y=95.495
Rb67	net6#77	net6#79	0.001176	$METTP
+ $X=92.49 $Y=94.9465
Rb80	net6#79	net6#92	0.002495	$METTP
+ $X=107.01 $Y=94.36
Rb93	net6#92	net6#105	0.002495	$METTP
+ $X=92.49 $Y=90.753
Rb106	net6#105	net6#118	0.002495	$METTP
+ $X=107.01 $Y=89.55
Rb119	net6#118	net6#131	0.002490	$METTP
+ $X=92.49 $Y=85.9455
Rb132	net6#131	net6#144	0.002490	$METTP
+ $X=107.01 $Y=84.745
Rb144	net6#144	net6#11	2.000000	$METTP
+ $X=79.18 $Y=82.345
Rb145	net6#11	net6#12	2.000000	$METTP
+ $X=107.01 $Y=106.385
Rb146	net6#11	net6#12	2.000000	$METTP
+ $X=104.59 $Y=106.385
Rb147	net6#11	net6#12	2.000000	$METTP
+ $X=102.17 $Y=106.385
Rb148	net6#11	net6#12	2.000000	$METTP
+ $X=99.75 $Y=106.385
Rb149	net6#11	net6#12	2.000000	$METTP
+ $X=97.33 $Y=106.385
Rb150	net6#11	net6#12	2.000000	$METTP
+ $X=94.91 $Y=106.385
Rb151	net6#11	net6#12	2.000000	$METTP
+ $X=92.49 $Y=106.385
Rb152	net6#11	net6#12	2.000000	$METTP
+ $X=90.07 $Y=106.385
Rb153	net6#11	net6#12	2.000000	$METTP
+ $X=87.65 $Y=106.385
Rb154	net6#11	net6#12	2.000000	$METTP
+ $X=85.23 $Y=106.385
Rb155	net6#11	net6#12	2.000000	$METTP
+ $X=82.81 $Y=106.385
Rb156	net6#11	net6#12	2.000000	$METTP
+ $X=80.39 $Y=106.385
Rb157	net6#11	net6#12	2.000000	$METTP
+ $X=77.97 $Y=106.385
Rb158	net6#11	net6#25	2.000000	$METTP
+ $X=107.01 $Y=103.98
Rb159	net6#11	net6#25	2.000000	$METTP
+ $X=104.59 $Y=103.98
Rb160	net6#11	net6#25	2.000000	$METTP
+ $X=102.17 $Y=103.98
Rb161	net6#11	net6#25	2.000000	$METTP
+ $X=99.75 $Y=103.98
Rb162	net6#11	net6#25	2.000000	$METTP
+ $X=97.33 $Y=103.98
Rb163	net6#11	net6#25	2.000000	$METTP
+ $X=94.91 $Y=103.98
Rb164	net6#11	net6#25	2.000000	$METTP
+ $X=92.49 $Y=103.98
Rb165	net6#11	net6#25	2.000000	$METTP
+ $X=90.07 $Y=103.98
Rb166	net6#11	net6#25	2.000000	$METTP
+ $X=87.65 $Y=103.98
Rb167	net6#11	net6#25	2.000000	$METTP
+ $X=85.23 $Y=103.98
Rb168	net6#11	net6#25	2.000000	$METTP
+ $X=82.81 $Y=103.98
Rb169	net6#11	net6#25	2.000000	$METTP
+ $X=80.39 $Y=103.98
Rb170	net6#11	net6#25	2.000000	$METTP
+ $X=77.97 $Y=103.98
Rb171	net6#11	net6#38	2.000000	$METTP
+ $X=107.01 $Y=101.575
Rb172	net6#11	net6#38	2.000000	$METTP
+ $X=104.59 $Y=101.575
Rb173	net6#11	net6#38	2.000000	$METTP
+ $X=102.17 $Y=101.575
Rb174	net6#11	net6#38	2.000000	$METTP
+ $X=99.75 $Y=101.575
Rb175	net6#11	net6#38	2.000000	$METTP
+ $X=97.33 $Y=101.575
Rb176	net6#11	net6#38	2.000000	$METTP
+ $X=94.91 $Y=101.575
Rb177	net6#11	net6#38	2.000000	$METTP
+ $X=92.49 $Y=101.575
Rb178	net6#11	net6#38	2.000000	$METTP
+ $X=90.07 $Y=101.575
Rb179	net6#11	net6#38	2.000000	$METTP
+ $X=87.65 $Y=101.575
Rb180	net6#11	net6#38	2.000000	$METTP
+ $X=85.23 $Y=101.575
Rb181	net6#11	net6#38	2.000000	$METTP
+ $X=82.81 $Y=101.575
Rb182	net6#11	net6#38	2.000000	$METTP
+ $X=80.39 $Y=101.575
Rb183	net6#11	net6#38	2.000000	$METTP
+ $X=77.97 $Y=101.575
Rb184	net6#11	net6#51	2.000000	$METTP
+ $X=107.01 $Y=99.17
Rb185	net6#11	net6#51	2.000000	$METTP
+ $X=104.59 $Y=99.17
Rb186	net6#11	net6#51	2.000000	$METTP
+ $X=102.17 $Y=99.17
Rb187	net6#11	net6#51	2.000000	$METTP
+ $X=99.75 $Y=99.17
Rb188	net6#11	net6#51	2.000000	$METTP
+ $X=97.33 $Y=99.17
Rb189	net6#11	net6#51	2.000000	$METTP
+ $X=94.91 $Y=99.17
Rb190	net6#11	net6#51	2.000000	$METTP
+ $X=92.49 $Y=99.17
Rb191	net6#11	net6#51	2.000000	$METTP
+ $X=90.07 $Y=99.17
Rb192	net6#11	net6#51	2.000000	$METTP
+ $X=87.65 $Y=99.17
Rb193	net6#11	net6#51	2.000000	$METTP
+ $X=85.23 $Y=99.17
Rb194	net6#11	net6#51	2.000000	$METTP
+ $X=82.81 $Y=99.17
Rb195	net6#11	net6#51	2.000000	$METTP
+ $X=80.39 $Y=99.17
Rb196	net6#11	net6#51	2.000000	$METTP
+ $X=77.97 $Y=99.17
Rb197	net6#11	net6#64	2.000000	$METTP
+ $X=107.01 $Y=96.765
Rb198	net6#11	net6#64	2.000000	$METTP
+ $X=104.59 $Y=96.765
Rb199	net6#11	net6#64	2.000000	$METTP
+ $X=102.17 $Y=96.765
Rb200	net6#11	net6#64	2.000000	$METTP
+ $X=99.75 $Y=96.765
Rb201	net6#11	net6#64	2.000000	$METTP
+ $X=97.33 $Y=96.765
Rb202	net6#11	net6#64	2.000000	$METTP
+ $X=94.91 $Y=96.765
Rb203	net6#11	net6#64	2.000000	$METTP
+ $X=92.49 $Y=96.765
Rb204	net6#11	net6#64	2.000000	$METTP
+ $X=90.07 $Y=96.765
Rb205	net6#11	net6#64	2.000000	$METTP
+ $X=87.65 $Y=96.765
Rb206	net6#11	net6#64	2.000000	$METTP
+ $X=85.23 $Y=96.765
Rb207	net6#11	net6#64	2.000000	$METTP
+ $X=82.81 $Y=96.765
Rb208	net6#11	net6#64	2.000000	$METTP
+ $X=80.39 $Y=96.765
Rb209	net6#11	net6#64	2.000000	$METTP
+ $X=77.97 $Y=96.765
Rb210	net6#11	net6#79	2.000000	$METTP
+ $X=107.01 $Y=94.36
Rb211	net6#11	net6#79	2.000000	$METTP
+ $X=104.59 $Y=94.36
Rb212	net6#11	net6#79	2.000000	$METTP
+ $X=102.17 $Y=94.36
Rb213	net6#11	net6#79	2.000000	$METTP
+ $X=99.75 $Y=94.36
Rb214	net6#11	net6#79	2.000000	$METTP
+ $X=97.33 $Y=94.36
Rb215	net6#11	net6#79	2.000000	$METTP
+ $X=94.91 $Y=94.36
Rb216	net6#11	net6#79	2.000000	$METTP
+ $X=92.49 $Y=94.36
Rb217	net6#11	net6#79	2.000000	$METTP
+ $X=90.07 $Y=94.36
Rb218	net6#11	net6#79	2.000000	$METTP
+ $X=87.65 $Y=94.36
Rb219	net6#11	net6#79	2.000000	$METTP
+ $X=85.23 $Y=94.36
Rb220	net6#11	net6#79	2.000000	$METTP
+ $X=82.81 $Y=94.36
Rb221	net6#11	net6#79	2.000000	$METTP
+ $X=80.39 $Y=94.36
Rb222	net6#11	net6#79	2.000000	$METTP
+ $X=77.97 $Y=94.36
Rb223	net6#11	net6#92	2.000000	$METTP
+ $X=107.01 $Y=91.955
Rb224	net6#11	net6#92	2.000000	$METTP
+ $X=104.59 $Y=91.955
Rb225	net6#11	net6#92	2.000000	$METTP
+ $X=102.17 $Y=91.955
Rb226	net6#11	net6#92	2.000000	$METTP
+ $X=99.75 $Y=91.955
Rb227	net6#11	net6#92	2.000000	$METTP
+ $X=97.33 $Y=91.955
Rb228	net6#11	net6#92	2.000000	$METTP
+ $X=94.91 $Y=91.955
Rb229	net6#11	net6#92	2.000000	$METTP
+ $X=92.49 $Y=91.955
Rb230	net6#11	net6#92	2.000000	$METTP
+ $X=90.07 $Y=91.955
Rb231	net6#11	net6#92	2.000000	$METTP
+ $X=87.65 $Y=91.955
Rb232	net6#11	net6#92	2.000000	$METTP
+ $X=85.23 $Y=91.955
Rb233	net6#11	net6#92	2.000000	$METTP
+ $X=82.81 $Y=91.955
Rb234	net6#11	net6#92	2.000000	$METTP
+ $X=80.39 $Y=91.955
Rb235	net6#11	net6#92	2.000000	$METTP
+ $X=77.97 $Y=91.955
Rb236	net6#11	net6#105	2.000000	$METTP
+ $X=107.01 $Y=89.55
Rb237	net6#11	net6#105	2.000000	$METTP
+ $X=104.59 $Y=89.55
Rb238	net6#11	net6#105	2.000000	$METTP
+ $X=102.17 $Y=89.55
Rb239	net6#11	net6#105	2.000000	$METTP
+ $X=99.75 $Y=89.55
Rb240	net6#11	net6#105	2.000000	$METTP
+ $X=97.33 $Y=89.55
Rb241	net6#11	net6#105	2.000000	$METTP
+ $X=94.91 $Y=89.55
Rb242	net6#11	net6#105	2.000000	$METTP
+ $X=92.49 $Y=89.55
Rb243	net6#11	net6#105	2.000000	$METTP
+ $X=90.07 $Y=89.55
Rb244	net6#11	net6#105	2.000000	$METTP
+ $X=87.65 $Y=89.55
Rb245	net6#11	net6#105	2.000000	$METTP
+ $X=85.23 $Y=89.55
Rb246	net6#11	net6#105	2.000000	$METTP
+ $X=82.81 $Y=89.55
Rb247	net6#11	net6#105	2.000000	$METTP
+ $X=80.39 $Y=89.55
Rb248	net6#11	net6#105	2.000000	$METTP
+ $X=77.97 $Y=89.55
Rb249	net6#11	net6#118	2.000000	$METTP
+ $X=107.01 $Y=87.145
Rb250	net6#11	net6#118	2.000000	$METTP
+ $X=104.59 $Y=87.145
Rb251	net6#11	net6#118	2.000000	$METTP
+ $X=102.17 $Y=87.145
Rb252	net6#11	net6#118	2.000000	$METTP
+ $X=99.75 $Y=87.145
Rb253	net6#11	net6#118	2.000000	$METTP
+ $X=97.33 $Y=87.145
Rb254	net6#11	net6#118	2.000000	$METTP
+ $X=94.91 $Y=87.145
Rb255	net6#11	net6#118	2.000000	$METTP
+ $X=92.49 $Y=87.145
Rb256	net6#11	net6#118	2.000000	$METTP
+ $X=90.07 $Y=87.145
Rb257	net6#11	net6#118	2.000000	$METTP
+ $X=87.65 $Y=87.145
Rb258	net6#11	net6#118	2.000000	$METTP
+ $X=85.23 $Y=87.145
Rb259	net6#11	net6#118	2.000000	$METTP
+ $X=82.81 $Y=87.145
Rb260	net6#11	net6#118	2.000000	$METTP
+ $X=80.39 $Y=87.145
Rb261	net6#11	net6#118	2.000000	$METTP
+ $X=77.97 $Y=87.145
Rb262	net6#11	net6#131	2.000000	$METTP
+ $X=107.01 $Y=84.745
Rb263	net6#11	net6#131	2.000000	$METTP
+ $X=104.59 $Y=84.745
Rb264	net6#11	net6#131	2.000000	$METTP
+ $X=102.17 $Y=84.745
Rb265	net6#11	net6#131	2.000000	$METTP
+ $X=99.75 $Y=84.745
Rb266	net6#11	net6#131	2.000000	$METTP
+ $X=97.33 $Y=84.745
Rb267	net6#11	net6#131	2.000000	$METTP
+ $X=94.91 $Y=84.745
Rb268	net6#11	net6#131	2.000000	$METTP
+ $X=92.49 $Y=84.745
Rb269	net6#11	net6#131	2.000000	$METTP
+ $X=90.07 $Y=84.745
Rb270	net6#11	net6#131	2.000000	$METTP
+ $X=87.65 $Y=84.745
Rb271	net6#11	net6#131	2.000000	$METTP
+ $X=85.23 $Y=84.745
Rb272	net6#11	net6#131	2.000000	$METTP
+ $X=82.81 $Y=84.745
Rb273	net6#11	net6#131	2.000000	$METTP
+ $X=80.39 $Y=84.745
Rb274	net6#11	net6#131	2.000000	$METTP
+ $X=77.97 $Y=84.745
Rb275	net6#11	net6#144	2.000000	$METTP
+ $X=107.01 $Y=82.345
Rb276	net6#11	net6#144	2.000000	$METTP
+ $X=104.59 $Y=82.345
Rb277	net6#11	net6#144	2.000000	$METTP
+ $X=102.17 $Y=82.345
Rb278	net6#11	net6#144	2.000000	$METTP
+ $X=99.75 $Y=82.345
Rb279	net6#11	net6#144	2.000000	$METTP
+ $X=97.33 $Y=82.345
Rb280	net6#11	net6#144	2.000000	$METTP
+ $X=94.91 $Y=82.345
Rb281	net6#11	net6#144	2.000000	$METTP
+ $X=92.49 $Y=82.345
Rb282	net6#11	net6#144	2.000000	$METTP
+ $X=90.07 $Y=82.345
Rb283	net6#11	net6#144	2.000000	$METTP
+ $X=87.65 $Y=82.345
Rb284	net6#11	net6#144	2.000000	$METTP
+ $X=85.23 $Y=82.345
Rb285	net6#11	net6#144	2.000000	$METTP
+ $X=82.81 $Y=82.345
Rb286	net6#11	net6#144	2.000000	$METTP
+ $X=80.39 $Y=82.345
Rc1	net6#7	net6#10	0.791848	$MET4	$X=72.532 $Y=95.455
Rc2	OUT#146	OUT#139	1.022963	$MET4
+ $X=92.49 $Y=94.365
Rd1	VDDA#202	VDDA#182	2.282329	$MET3
+ $X=6.41 $Y=90.2855
Rd2	C#84	C#103	0.586266	$MET3	$X=4.57 $Y=70.827
Rd3	C#84	C#91	2.089479	$MET3	$X=6.57 $Y=49.1805
Rd4	C#103	C#96	2.062109	$MET3	$X=4.57 $Y=91.2045
Rd5	D#149	D#156	2.589479	$MET3	$X=8.41 $Y=51.0205
Rd6	B#88	B#101	2.309699	$MET3	$X=10.25 $Y=50.1005
Rd7	B#77	B#90	2.309699	$MET3	$X=39.55 $Y=50.1005
Rd8	C#78	C#85	2.589479	$MET3	$X=41.39 $Y=49.1805
Rd9	VDDA#189	VDDA#169	2.282329	$MET3
+ $X=41.57 $Y=90.2855
Rd10	D#162	D#171	0.826671	$MET3	$X=43.41 $Y=82.1105
Rd11	D#171	D#143	0.361279	$MET3	$X=43.23 $Y=70.328
Rd12	D#143	D#150	2.089479	$MET3	$X=43.23 $Y=51.0205
Rd13	D#162	D#157	1.235438	$MET3	$X=43.41 $Y=97.5195
Rd14	A#251	A#264	1.572110	$MET3	$X=50.41 $Y=60.8705
Rd15	A#264	A#279	0.822110	$MET3	$X=50.41 $Y=44.6505
Rd16	A#279	A#285	0.822110	$MET3	$X=50.41 $Y=28.4305
Rd17	A#285	A#286	0.218914	$MET3	$X=50.41 $Y=18.253
Rd18	A#286	A#234	1.948376	$MET3	$X=38.5775 $Y=15.925
Rd19	A#286	A#281	0.889339	$MET3	$X=50.41 $Y=14.3825
Rd20	net5#41	net5#44	1.572110	$MET3
+ $X=52.25 $Y=63.5505
Rd21	net5#44	net5#52	0.822110	$MET3
+ $X=52.25 $Y=47.3305
Rd22	net5#52	net5#31	0.504822	$MET3
+ $X=52.25 $Y=34.3705
Rd23	net5#31	net5#48	0.317288	$MET3
+ $X=52.25 $Y=26.0005
Rd24	net5#48	net5#49	1.115945	$MET3
+ $X=52.25 $Y=19.3905
Rd25	net6#7	net6#5	0.562500	$MET3	$X=70.84 $Y=95.455
Rd26	GNDA#619	GNDA#651	1.572110	$MET3
+ $X=101.87 $Y=64.8905
Rd27	GNDA#651	GNDA#671	0.822110	$MET3
+ $X=101.87 $Y=48.6705
Rd28	GNDA#671	GNDA#691	0.822110	$MET3
+ $X=101.87 $Y=32.4505
Rd29	GNDA#691	GNDA#722	0.365945	$MET3
+ $X=101.87 $Y=20.7305
Rd30	GNDA#722	GNDA#756	0.936452	$MET3
+ $X=100.3805 $Y=10.62
Rd31	GNDA#756	GNDA#757	0.527123	$MET3
+ $X=84.0105 $Y=10.62
Rd32	GNDA#757	GNDA#758	0.527123	$MET3
+ $X=73.6105 $Y=10.62
Rd33	GNDA#758	GNDA#750	1.020589	$MET3
+ $X=56.4105 $Y=10.62
Rd34	GNDA#750	GNDA#721	0.365945	$MET3
+ $X=54.09 $Y=20.7295
Rd35	GNDA#721	GNDA#690	0.822110	$MET3
+ $X=54.09 $Y=32.4495
Rd36	GNDA#690	GNDA#670	0.822110	$MET3
+ $X=54.09 $Y=48.6695
Rd37	GNDA#670	GNDA#650	1.572110	$MET3
+ $X=54.09 $Y=64.8895
Rd38	OUT	OUT#139	0.059048	$MET3	$X=103.71 $Y=77.205
Rd39	OUT#139	OUT#101	4.403089	$MET3
+ $X=84.4925 $Y=78.39
Rd40	OUT	OUT#141	0.348966	$MET3	$X=103.71 $Y=74.0075
Rd41	OUT#141	OUT#105	0.822110	$MET3
+ $X=103.71 $Y=62.2105
Rd42	OUT#105	OUT#116	0.822110	$MET3
+ $X=103.71 $Y=45.9905
Rd43	OUT#116	OUT#127	0.822110	$MET3
+ $X=103.71 $Y=29.7705
Rd44	OUT#127	OUT#138	1.115945	$MET3
+ $X=103.71 $Y=18.0505
Rd69	A#280	A#285	0.750000	$MET3	$X=50.41 $Y=20.32
Rd74	net5#45	net5#52	0.750000	$MET3
+ $X=52.25 $Y=39.22
Rd84	GNDA#613	GNDA#756	0.075000	$MET3
+ $X=89.21 $Y=10.62
Rd85	GNDA#615	GNDA#757	0.075000	$MET3
+ $X=78.81 $Y=10.62
Rd86	GNDA#617	GNDA#758	0.075000	$MET3
+ $X=68.41 $Y=10.62
Rd93	OUT#104	OUT#141	0.750000	$MET3
+ $X=103.71 $Y=70.32
Re1	A#82	A#234	1.566904	$MET2	$X=23.2 $Y=24.92
Re2	A#234	A#80	0.013178	$MET2	$X=23.2 $Y=24.92
Re3	A#80	A#78	0.080082	$MET2	$X=22.15 $Y=24.92
Re4	A#78	A#76	0.080082	$MET2	$X=20.5705 $Y=24.92
Re5	A#76	A#74	1.580082	$MET2	$X=18.9905 $Y=24.92
Re6	BIAS	BIAS#48	0.034719	$MET2	$X=18.712 $Y=26.76
Re7	BIAS#48	BIAS#50	0.080082	$MET2
+ $X=19.78 $Y=26.76
Re8	BIAS#50	BIAS#52	0.080082	$MET2
+ $X=21.36 $Y=26.76
Re9	BIAS#52	BIAS#54	0.080082	$MET2
+ $X=22.94 $Y=26.76
Re10	BIAS#54	BIAS#59	0.645877	$MET2
+ $X=24.6825 $Y=26.765
Re11	D#143	D#132	0.879123	$MET2	$X=39.2305 $Y=66.7
Re12	D#132	D#116	0.227068	$MET2	$X=33.5105 $Y=66.7
Re13	D#116	D#97	0.227068	$MET2	$X=29.0305 $Y=66.7
Re14	D#97	D#74	0.227068	$MET2	$X=24.5505 $Y=66.7
Re15	D#74	D#58	0.227068	$MET2	$X=20.0705 $Y=66.7
Re16	D#58	D#149	0.477452	$MET2	$X=13.3805 $Y=66.7
Re17	C#78	C#65	0.399397	$MET2	$X=37.1905 $Y=64.86
Re18	C#65	C#53	0.227068	$MET2	$X=31.2705 $Y=64.86
Re19	C#53	C#44	0.227068	$MET2	$X=26.7905 $Y=64.86
Re20	C#44	C#32	0.227068	$MET2	$X=22.3105 $Y=64.86
Re21	C#32	C#23	0.227068	$MET2	$X=17.8305 $Y=64.86
Re22	C#23	C#84	0.957178	$MET2	$X=11.3405 $Y=64.86
Re23	B#77	B#61	0.270658	$MET2	$X=36.6205 $Y=63.02
Re24	B#61	B#53	0.113534	$MET2	$X=33.0905 $Y=63.02
Re25	B#53	B#45	0.113534	$MET2	$X=30.8505 $Y=63.02
Re26	B#45	B#39	0.113534	$MET2	$X=28.6105 $Y=63.02
Re27	B#39	B#33	0.113534	$MET2	$X=26.3705 $Y=63.02
Re28	B#33	B#27	0.113534	$MET2	$X=24.1305 $Y=63.02
Re29	B#27	B#21	0.113534	$MET2	$X=21.8905 $Y=63.02
Re30	B#21	B#15	0.113534	$MET2	$X=19.6505 $Y=63.02
Re31	B#15	B#9	0.113534	$MET2	$X=17.4105 $Y=63.02
Re32	B#9	B#3	0.113534	$MET2	$X=15.1705 $Y=63.02
Re33	B#3	B#88	0.192603	$MET2	$X=12.4105 $Y=63.02
Re34	INP#39	INP#37	5.030334	$MET2	$X=34.0305 $Y=50.47
Re35	INP#37	INP#35	0.390556	$MET2	$X=31.7905 $Y=50.47
Re36	INP#35	INP#33	0.530333	$MET2	$X=29.5505 $Y=50.47
Re37	INP#33	INP#31	0.390556	$MET2	$X=27.3105 $Y=50.47
Re38	INP#31	INP#29	0.530333	$MET2	$X=25.0705 $Y=50.47
Re39	INP#29	INP#27	0.390556	$MET2	$X=22.8305 $Y=50.47
Re40	INP#27	INP#25	0.530333	$MET2	$X=20.5905 $Y=50.47
Re41	INP#25	INP#23	0.390556	$MET2	$X=18.3505 $Y=50.47
Re42	INP#23	INP#21	0.530333	$MET2	$X=16.1105 $Y=50.47
Re43	INP#21	INP	1.807861	$MET2	$X=10.3235 $Y=50.47
Re44	INN#40	INN#37	4.890555	$MET2	$X=33.6905 $Y=49.73
Re45	INN#37	INN#36	0.530333	$MET2	$X=31.4505 $Y=49.73
Re46	INN#36	INN#33	0.390556	$MET2	$X=29.2105 $Y=49.73
Re47	INN#33	INN#32	0.530333	$MET2	$X=26.9705 $Y=49.73
Re48	INN#32	INN#29	0.390556	$MET2	$X=24.7305 $Y=49.73
Re49	INN#29	INN#28	0.530333	$MET2	$X=22.4905 $Y=49.73
Re50	INN#28	INN#25	0.390556	$MET2	$X=20.2505 $Y=49.73
Re51	INN#25	INN#24	0.530333	$MET2	$X=18.0105 $Y=49.73
Re52	INN#24	INN#21	0.390556	$MET2	$X=15.7705 $Y=49.73
Re53	INN#21	INN	1.807861	$MET2	$X=10.3235 $Y=49.73
Re54	D#150	D#129	0.492658	$MET2	$X=38.1105 $Y=35.34
Re55	D#129	D#103	0.227068	$MET2	$X=31.2705 $Y=35.34
Re56	D#103	D#87	0.227068	$MET2	$X=26.7905 $Y=35.34
Re57	D#87	D#68	0.227068	$MET2	$X=22.3105 $Y=35.34
Re58	D#68	D#45	0.227068	$MET2	$X=17.8305 $Y=35.34
Re59	D#45	D#156	0.363918	$MET2	$X=12.2605 $Y=35.34
Re60	C#85	C#68	0.285863	$MET2	$X=38.3105 $Y=33.5
Re61	C#68	C#59	0.227068	$MET2	$X=33.5105 $Y=33.5
Re62	C#59	C#47	0.227068	$MET2	$X=29.0305 $Y=33.5
Re63	C#47	C#38	0.227068	$MET2	$X=24.5505 $Y=33.5
Re64	C#38	C#29	0.227068	$MET2	$X=20.0705 $Y=33.5
Re65	C#29	C#91	0.570712	$MET2	$X=12.4605 $Y=33.5
Re66	C#62	C#50	1.828438	$MET2	$X=30.1205 $Y=106.615
Re67	C#50	C#41	0.164219	$MET2	$X=25.2605 $Y=106.615
Re68	C#41	C#26	0.328438	$MET2	$X=20.4005 $Y=106.615
Re69	C#26	C#96	0.638123	$MET2	$X=11.1255 $Y=106.615
Re70	D#157	D#142	0.345164	$MET2	$X=39.7455 $Y=104.775
Re71	D#142	D#113	0.328438	$MET2	$X=33.3605 $Y=104.775
Re72	D#113	D#71	0.492658	$MET2	$X=25.2605 $Y=104.775
Re73	D#71	D#42	1.828438	$MET2	$X=17.1605 $Y=104.775
Re74	D#162	D#163	3.160889	$MET2	$X=39.1105 $Y=90.265
Re75	D#163	D#164	0.666000	$MET2	$X=33.7105 $Y=90.265
Re76	D#164	D#165	0.666000	$MET2	$X=30.4705 $Y=90.265
Re77	D#165	D#166	0.666000	$MET2	$X=27.2305 $Y=90.265
Re78	D#166	D#167	0.666000	$MET2	$X=23.9905 $Y=90.265
Re79	D#167	D#168	0.666000	$MET2	$X=20.7505 $Y=90.265
Re80	D#168	D#169	0.666000	$MET2	$X=17.5105 $Y=90.265
Re81	D#169	D#35	5.166000	$MET2	$X=14.2705 $Y=90.265
Re82	VDDA#169	VDDA#92	0.087685	$MET2
+ $X=40.4455 $Y=77.635
Re83	VDDA#92	VDDA#90	0.128740	$MET2
+ $X=38.5705 $Y=77.635
Re84	VDDA#90	VDDA#74	0.164219	$MET2
+ $X=35.6805 $Y=77.635
Re85	VDDA#74	VDDA#68	0.164219	$MET2
+ $X=32.4405 $Y=77.635
Re86	VDDA#68	VDDA#62	0.164219	$MET2
+ $X=29.2005 $Y=77.635
Re87	VDDA#62	VDDA#56	0.164219	$MET2
+ $X=25.9605 $Y=77.635
Re88	VDDA#56	VDDA#50	0.164219	$MET2
+ $X=22.7205 $Y=77.635
Re89	VDDA#50	VDDA#44	0.164219	$MET2
+ $X=19.4805 $Y=77.635
Re90	VDDA#44	VDDA#38	0.164219	$MET2
+ $X=16.2405 $Y=77.635
Re91	VDDA#38	VDDA#32	0.164219	$MET2
+ $X=13.0005 $Y=77.635
Re92	VDDA#32	VDDA#26	0.035479	$MET2
+ $X=11.38 $Y=77.635
Re93	VDDA#26	VDDA#24	0.128740	$MET2
+ $X=9.4105 $Y=77.635
Re94	VDDA#24	VDDA#182	0.087685	$MET2
+ $X=7.5355 $Y=77.635
Re95	D#171	D#126	1.009384	$MET2	$X=38.1255 $Y=73.955
Re96	D#126	D#100	0.328438	$MET2	$X=30.1205 $Y=73.955
Re97	D#100	D#84	0.164219	$MET2	$X=25.2605 $Y=73.955
Re98	D#84	D#55	1.828438	$MET2	$X=20.4005 $Y=73.955
Re99	B#76	B#90	0.904061	$MET2	$X=45.515 $Y=33.282
Re100	B#90	B#64	0.270658	$MET2	$X=36.6205 $Y=37.18
Re101	B#64	B#56	0.113534	$MET2	$X=33.0905 $Y=37.18
Re102	B#56	B#48	0.113534	$MET2	$X=30.8505 $Y=37.18
Re103	B#48	B#42	0.113534	$MET2	$X=28.6105 $Y=37.18
Re104	B#42	B#36	0.113534	$MET2	$X=26.3705 $Y=37.18
Re105	B#36	B#30	0.113534	$MET2	$X=24.1305 $Y=37.18
Re106	B#30	B#24	0.113534	$MET2	$X=21.8905 $Y=37.18
Re107	B#24	B#18	0.113534	$MET2	$X=19.6505 $Y=37.18
Re108	B#18	B#12	0.113534	$MET2	$X=17.4105 $Y=37.18
Re109	B#12	B#6	0.113534	$MET2	$X=15.1705 $Y=37.18
Re110	B#6	B#101	0.192603	$MET2	$X=12.4105 $Y=37.18
Re111	B#76	B#74	0.080082	$MET2	$X=41.9055 $Y=26.76
Re112	B#74	B#72	0.080082	$MET2	$X=40.3255 $Y=26.76
Re113	B#72	B#70	0.080082	$MET2	$X=38.7455 $Y=26.76
Re114	B#70	B#68	0.080082	$MET2	$X=37.1655 $Y=26.76
Re115	B#68	B#66	0.080082	$MET2	$X=35.5855 $Y=26.76
Re116	B#66	B#58	0.080082	$MET2	$X=34.0055 $Y=26.76
Re117	B#58	B#50	1.580082	$MET2	$X=32.4255 $Y=26.76
Re118	net5#31	net5#18	1.094883	$MET2
+ $X=47.77 $Y=26.928
Re119	net5#18	net5#16	0.080082	$MET2
+ $X=42.6955 $Y=24.92
Re120	net5#16	net5#14	0.080082	$MET2
+ $X=41.1155 $Y=24.92
Re121	net5#14	net5#12	0.080082	$MET2
+ $X=39.5355 $Y=24.92
Re122	net5#12	net5#10	0.080082	$MET2
+ $X=37.9555 $Y=24.92
Re123	net5#10	net5#8	0.080082	$MET2	$X=36.3755 $Y=24.92
Re124	net5#8	net5#6	0.080082	$MET2	$X=34.7955 $Y=24.92
Re125	net5#6	net5#4	0.080082	$MET2	$X=33.2155 $Y=24.92
Re126	net5#4	net5#2	1.580082	$MET2	$X=31.6355 $Y=24.92
Re127	C#76	C#72	1.596209	$MET2	$X=53.55 $Y=97.73
Re128	C#72	C#71	4.460733	$MET2	$X=48.18 $Y=95.625
Re129	C#71	C#56	0.328438	$MET2	$X=33.3605 $Y=75.795
Re130	C#56	C#35	0.492658	$MET2	$X=25.2605 $Y=75.795
Re131	C#35	C#20	0.328438	$MET2	$X=17.1605 $Y=75.795
Re132	C#20	C#103	0.973904	$MET2	$X=8.871 $Y=75.795
Re133	OUT#8	OUT#6	1.605425	$MET2	$X=55.6605 $Y=106.615
Re134	OUT#6	OUT#101	0.054993	$MET2	$X=54.62 $Y=106.615
Re135	OUT#101	OUT#4	0.050432	$MET2	$X=52.778 $Y=106.615
Re136	OUT#4	OUT#2	1.605425	$MET2	$X=51.5005 $Y=106.615
Re137	net6#5	net6#4	0.562500	$MET2	$X=70.84 $Y=95.455
Re138	GNDA#613	GNDA#549	0.075000	$MET2
+ $X=89.21 $Y=10.62
Re139	GNDA#613	GNDA#615	0.527123	$MET2
+ $X=84.0105 $Y=10.62
Re140	GNDA#615	GNDA#553	0.075000	$MET2
+ $X=78.81 $Y=10.62
Re141	GNDA#615	GNDA#617	0.527123	$MET2
+ $X=73.6105 $Y=10.62
Re142	GNDA#617	GNDA#557	0.075000	$MET2
+ $X=68.41 $Y=10.62
Re143	GNDA#619	GNDA#445	0.120250	$MET2
+ $X=100.8305 $Y=73
Re144	GNDA#445	GNDA#426	0.097896	$MET2
+ $X=99.6755 $Y=73
Re145	GNDA#426	GNDA#444	0.097896	$MET2
+ $X=98.4055 $Y=73
Re146	GNDA#444	GNDA#409	0.053958	$MET2	$X=97.77 $Y=73
Re147	GNDA#409	GNDA#408	0.195792	$MET2
+ $X=95.8005 $Y=73
Re148	GNDA#408	GNDA#385	0.053958	$MET2	$X=94.53 $Y=73
Re149	GNDA#385	GNDA#384	0.195792	$MET2
+ $X=92.5605 $Y=73
Re150	GNDA#384	GNDA#361	0.053958	$MET2	$X=91.29 $Y=73
Re151	GNDA#361	GNDA#360	0.195792	$MET2
+ $X=89.3205 $Y=73
Re152	GNDA#360	GNDA#337	0.053958	$MET2	$X=88.05 $Y=73
Re153	GNDA#337	GNDA#336	0.195792	$MET2
+ $X=86.0805 $Y=73
Re154	GNDA#336	GNDA#313	0.053958	$MET2	$X=84.81 $Y=73
Re155	GNDA#313	GNDA#312	0.195792	$MET2
+ $X=82.8405 $Y=73
Re156	GNDA#312	GNDA#289	0.053958	$MET2	$X=81.57 $Y=73
Re157	GNDA#289	GNDA#288	0.195792	$MET2
+ $X=79.6005 $Y=73
Re158	GNDA#288	GNDA#265	0.053958	$MET2	$X=78.33 $Y=73
Re159	GNDA#265	GNDA#264	0.195792	$MET2
+ $X=76.3605 $Y=73
Re160	GNDA#264	GNDA#240	0.053958	$MET2	$X=75.09 $Y=73
Re161	GNDA#240	GNDA#239	0.195792	$MET2
+ $X=73.1205 $Y=73
Re162	GNDA#239	GNDA#216	0.053958	$MET2	$X=71.85 $Y=73
Re163	GNDA#216	GNDA#215	0.195792	$MET2
+ $X=69.8805 $Y=73
Re164	GNDA#215	GNDA#192	0.053958	$MET2	$X=68.61 $Y=73
Re165	GNDA#192	GNDA#191	0.195792	$MET2
+ $X=66.6405 $Y=73
Re166	GNDA#191	GNDA#168	0.053958	$MET2	$X=65.37 $Y=73
Re167	GNDA#168	GNDA#167	0.195792	$MET2
+ $X=63.4005 $Y=73
Re168	GNDA#167	GNDA#144	0.053958	$MET2	$X=62.13 $Y=73
Re169	GNDA#144	GNDA#143	0.195792	$MET2
+ $X=60.1605 $Y=73
Re170	GNDA#143	GNDA#111	0.053958	$MET2	$X=58.89 $Y=73
Re171	GNDA#111	GNDA#92	0.097896	$MET2
+ $X=57.5555 $Y=73
Re172	GNDA#92	GNDA#110	0.097896	$MET2
+ $X=56.2855 $Y=73
Re173	GNDA#110	GNDA#650	0.120250	$MET2
+ $X=55.1305 $Y=73
Re174	A#224	A#212	2.499750	$MET2	$X=94.1805 $Y=68.98
Re175	A#212	A#200	0.249750	$MET2	$X=90.9405 $Y=68.98
Re176	A#200	A#188	0.249750	$MET2	$X=87.7005 $Y=68.98
Re177	A#188	A#176	0.249750	$MET2	$X=84.4605 $Y=68.98
Re178	A#176	A#161	0.249750	$MET2	$X=81.2205 $Y=68.98
Re179	A#161	A#146	0.249750	$MET2	$X=77.9805 $Y=68.98
Re180	A#146	A#134	0.249750	$MET2	$X=74.7405 $Y=68.98
Re181	A#134	A#122	0.249750	$MET2	$X=71.5005 $Y=68.98
Re182	A#122	A#110	0.249750	$MET2	$X=68.2605 $Y=68.98
Re183	A#110	A#98	0.249750	$MET2	$X=65.0205 $Y=68.98
Re184	A#98	A#86	0.249750	$MET2	$X=61.7805 $Y=68.98
Re185	A#86	A#251	0.751562	$MET2	$X=55.5455 $Y=68.98
Re186	GNDA#651	GNDA#448	0.870250	$MET2
+ $X=100.8305 $Y=56.78
Re187	GNDA#448	GNDA#430	0.097896	$MET2
+ $X=99.6755 $Y=56.78
Re188	GNDA#430	GNDA#414	0.097896	$MET2
+ $X=98.4055 $Y=56.78
Re189	GNDA#414	GNDA#390	0.249750	$MET2
+ $X=96.1505 $Y=56.78
Re190	GNDA#390	GNDA#366	0.249750	$MET2
+ $X=92.9105 $Y=56.78
Re191	GNDA#366	GNDA#342	0.249750	$MET2
+ $X=89.6705 $Y=56.78
Re192	GNDA#342	GNDA#318	0.249750	$MET2
+ $X=86.4305 $Y=56.78
Re193	GNDA#318	GNDA#294	0.249750	$MET2
+ $X=83.1905 $Y=56.78
Re194	GNDA#294	GNDA#272	0.249750	$MET2
+ $X=79.9505 $Y=56.78
Re195	GNDA#272	GNDA#247	0.249750	$MET2
+ $X=76.7105 $Y=56.78
Re196	GNDA#247	GNDA#221	0.249750	$MET2
+ $X=73.4705 $Y=56.78
Re197	GNDA#221	GNDA#197	0.249750	$MET2
+ $X=70.2305 $Y=56.78
Re198	GNDA#197	GNDA#173	0.249750	$MET2
+ $X=66.9905 $Y=56.78
Re199	GNDA#173	GNDA#149	0.249750	$MET2
+ $X=63.7505 $Y=56.78
Re200	GNDA#149	GNDA#125	0.249750	$MET2
+ $X=60.5105 $Y=56.78
Re201	GNDA#125	GNDA#114	0.053958	$MET2
+ $X=58.89 $Y=56.78
Re202	GNDA#114	GNDA#96	0.097896	$MET2
+ $X=57.5555 $Y=56.78
Re203	GNDA#96	GNDA#80	0.097896	$MET2
+ $X=56.2855 $Y=56.78
Re204	GNDA#80	GNDA#670	0.870250	$MET2
+ $X=55.1305 $Y=56.78
Re205	net5#27	net5#21	2.499750	$MET2
+ $X=79.2505 $Y=55.44
Re206	net5#21	net5#44	2.706375	$MET2
+ $X=65.2005 $Y=55.44
Re207	OUT#105	OUT#92	1.261833	$MET2	$X=100.1305 $Y=54.1
Re208	OUT#92	OUT#83	0.249750	$MET2	$X=95.4505 $Y=54.1
Re209	OUT#83	OUT#74	0.249750	$MET2	$X=92.2105 $Y=54.1
Re210	OUT#74	OUT#65	0.249750	$MET2	$X=88.9705 $Y=54.1
Re211	OUT#65	OUT#56	0.249750	$MET2	$X=85.7305 $Y=54.1
Re212	OUT#56	OUT#47	0.749250	$MET2	$X=79.2505 $Y=54.1
Re213	OUT#47	OUT#38	0.249750	$MET2	$X=72.7705 $Y=54.1
Re214	OUT#38	OUT#29	0.249750	$MET2	$X=69.5305 $Y=54.1
Re215	OUT#29	OUT#20	0.249750	$MET2	$X=66.2905 $Y=54.1
Re216	OUT#20	OUT#11	2.499750	$MET2	$X=63.0505 $Y=54.1
Re217	A#228	A#216	2.499750	$MET2	$X=94.1805 $Y=52.76
Re218	A#216	A#204	0.249750	$MET2	$X=90.9405 $Y=52.76
Re219	A#204	A#192	0.249750	$MET2	$X=87.7005 $Y=52.76
Re220	A#192	A#180	0.249750	$MET2	$X=84.4605 $Y=52.76
Re221	A#180	A#165	0.249750	$MET2	$X=81.2205 $Y=52.76
Re222	A#165	A#150	0.249750	$MET2	$X=77.9805 $Y=52.76
Re223	A#150	A#138	0.249750	$MET2	$X=74.7405 $Y=52.76
Re224	A#138	A#126	0.249750	$MET2	$X=71.5005 $Y=52.76
Re225	A#126	A#114	0.249750	$MET2	$X=68.2605 $Y=52.76
Re226	A#114	A#102	0.249750	$MET2	$X=65.0205 $Y=52.76
Re227	A#102	A#90	0.249750	$MET2	$X=61.7805 $Y=52.76
Re228	A#90	A#264	1.501562	$MET2	$X=55.5455 $Y=52.76
Re229	GNDA#671	GNDA#451	0.870250	$MET2
+ $X=100.8305 $Y=40.56
Re230	GNDA#451	GNDA#434	0.097896	$MET2
+ $X=99.6755 $Y=40.56
Re231	GNDA#434	GNDA#417	0.097896	$MET2
+ $X=98.4055 $Y=40.56
Re232	GNDA#417	GNDA#393	0.249750	$MET2
+ $X=96.1505 $Y=40.56
Re233	GNDA#393	GNDA#369	0.249750	$MET2
+ $X=92.9105 $Y=40.56
Re234	GNDA#369	GNDA#345	0.249750	$MET2
+ $X=89.6705 $Y=40.56
Re235	GNDA#345	GNDA#321	0.249750	$MET2
+ $X=86.4305 $Y=40.56
Re236	GNDA#321	GNDA#297	0.249750	$MET2
+ $X=83.1905 $Y=40.56
Re237	GNDA#297	GNDA#275	0.249750	$MET2
+ $X=79.9505 $Y=40.56
Re238	GNDA#275	GNDA#250	0.249750	$MET2
+ $X=76.7105 $Y=40.56
Re239	GNDA#250	GNDA#224	0.249750	$MET2
+ $X=73.4705 $Y=40.56
Re240	GNDA#224	GNDA#200	0.249750	$MET2
+ $X=70.2305 $Y=40.56
Re241	GNDA#200	GNDA#176	0.249750	$MET2
+ $X=66.9905 $Y=40.56
Re242	GNDA#176	GNDA#152	0.249750	$MET2
+ $X=63.7505 $Y=40.56
Re243	GNDA#152	GNDA#128	0.249750	$MET2
+ $X=60.5105 $Y=40.56
Re244	GNDA#128	GNDA#117	0.053958	$MET2
+ $X=58.89 $Y=40.56
Re245	GNDA#117	GNDA#100	0.097896	$MET2
+ $X=57.5555 $Y=40.56
Re246	GNDA#100	GNDA#83	0.097896	$MET2
+ $X=56.2855 $Y=40.56
Re247	GNDA#83	GNDA#690	0.870250	$MET2
+ $X=55.1305 $Y=40.56
Re248	OUT#116	OUT#95	1.261833	$MET2	$X=100.1305 $Y=37.88
Re249	OUT#95	OUT#86	0.249750	$MET2	$X=95.4505 $Y=37.88
Re250	OUT#86	OUT#77	0.249750	$MET2	$X=92.2105 $Y=37.88
Re251	OUT#77	OUT#68	0.249750	$MET2	$X=88.9705 $Y=37.88
Re252	OUT#68	OUT#59	0.249750	$MET2	$X=85.7305 $Y=37.88
Re253	OUT#59	OUT#50	0.749250	$MET2	$X=79.2505 $Y=37.88
Re254	OUT#50	OUT#41	0.249750	$MET2	$X=72.7705 $Y=37.88
Re255	OUT#41	OUT#32	0.249750	$MET2	$X=69.5305 $Y=37.88
Re256	OUT#32	OUT#23	0.249750	$MET2	$X=66.2905 $Y=37.88
Re257	OUT#23	OUT#14	2.499750	$MET2	$X=63.0505 $Y=37.88
Re258	A#232	A#220	2.499750	$MET2	$X=94.1805 $Y=36.54
Re259	A#220	A#208	0.249750	$MET2	$X=90.9405 $Y=36.54
Re260	A#208	A#196	0.249750	$MET2	$X=87.7005 $Y=36.54
Re261	A#196	A#184	0.249750	$MET2	$X=84.4605 $Y=36.54
Re262	A#184	A#172	0.151854	$MET2	$X=81.8555 $Y=36.54
Re263	A#172	A#169	0.097896	$MET2	$X=80.2355 $Y=36.54
Re264	A#169	A#157	0.151854	$MET2	$X=78.6155 $Y=36.54
Re265	A#157	A#154	0.097896	$MET2	$X=76.9955 $Y=36.54
Re266	A#154	A#142	0.249750	$MET2	$X=74.7405 $Y=36.54
Re267	A#142	A#130	0.249750	$MET2	$X=71.5005 $Y=36.54
Re268	A#130	A#118	0.249750	$MET2	$X=68.2605 $Y=36.54
Re269	A#118	A#106	0.249750	$MET2	$X=65.0205 $Y=36.54
Re270	A#106	A#94	0.249750	$MET2	$X=61.7805 $Y=36.54
Re271	A#94	A#279	1.501562	$MET2	$X=55.5455 $Y=36.54
Re272	GNDA#691	GNDA#454	0.870250	$MET2
+ $X=100.8305 $Y=24.34
Re273	GNDA#454	GNDA#438	0.097896	$MET2
+ $X=99.6755 $Y=24.34
Re274	GNDA#438	GNDA#420	0.097896	$MET2
+ $X=98.4055 $Y=24.34
Re275	GNDA#420	GNDA#402	0.151854	$MET2
+ $X=96.7855 $Y=24.34
Re276	GNDA#402	GNDA#396	0.097896	$MET2
+ $X=95.1655 $Y=24.34
Re277	GNDA#396	GNDA#378	0.151854	$MET2
+ $X=93.5455 $Y=24.34
Re278	GNDA#378	GNDA#372	0.097896	$MET2
+ $X=91.9255 $Y=24.34
Re279	GNDA#372	GNDA#354	0.151854	$MET2
+ $X=90.3055 $Y=24.34
Re280	GNDA#354	GNDA#348	0.097896	$MET2
+ $X=88.6855 $Y=24.34
Re281	GNDA#348	GNDA#330	0.151854	$MET2
+ $X=87.0655 $Y=24.34
Re282	GNDA#330	GNDA#324	0.097896	$MET2
+ $X=85.4455 $Y=24.34
Re283	GNDA#324	GNDA#306	0.151854	$MET2
+ $X=83.8255 $Y=24.34
Re284	GNDA#306	GNDA#300	0.097896	$MET2
+ $X=82.2055 $Y=24.34
Re285	GNDA#300	GNDA#282	0.151854	$MET2
+ $X=80.5855 $Y=24.34
Re286	GNDA#282	GNDA#278	0.097896	$MET2
+ $X=78.9655 $Y=24.34
Re287	GNDA#278	GNDA#253	0.249750	$MET2
+ $X=76.7105 $Y=24.34
Re288	GNDA#253	GNDA#233	0.151854	$MET2
+ $X=74.1055 $Y=24.34
Re289	GNDA#233	GNDA#227	0.097896	$MET2
+ $X=72.4855 $Y=24.34
Re290	GNDA#227	GNDA#209	0.151854	$MET2
+ $X=70.8655 $Y=24.34
Re291	GNDA#209	GNDA#203	0.097896	$MET2
+ $X=69.2455 $Y=24.34
Re292	GNDA#203	GNDA#185	0.151854	$MET2
+ $X=67.6255 $Y=24.34
Re293	GNDA#185	GNDA#179	0.097896	$MET2
+ $X=66.0055 $Y=24.34
Re294	GNDA#179	GNDA#161	0.151854	$MET2
+ $X=64.3855 $Y=24.34
Re295	GNDA#161	GNDA#155	0.097896	$MET2
+ $X=62.7655 $Y=24.34
Re296	GNDA#155	GNDA#137	0.151854	$MET2
+ $X=61.1455 $Y=24.34
Re297	GNDA#137	GNDA#131	0.097896	$MET2
+ $X=59.5255 $Y=24.34
Re298	GNDA#131	GNDA#120	0.053958	$MET2
+ $X=58.89 $Y=24.34
Re299	GNDA#120	GNDA#104	0.097896	$MET2
+ $X=57.5555 $Y=24.34
Re300	GNDA#104	GNDA#86	0.097896	$MET2
+ $X=56.2855 $Y=24.34
Re301	GNDA#86	GNDA#721	0.870250	$MET2
+ $X=55.1305 $Y=24.34
Re302	net5#30	net5#24	2.499750	$MET2
+ $X=79.2505 $Y=23
Re303	net5#24	net5#48	2.706375	$MET2
+ $X=65.2005 $Y=23
Re304	OUT#127	OUT#98	1.261833	$MET2	$X=100.1305 $Y=21.66
Re305	OUT#98	OUT#89	0.249750	$MET2	$X=95.4505 $Y=21.66
Re306	OUT#89	OUT#80	0.249750	$MET2	$X=92.2105 $Y=21.66
Re307	OUT#80	OUT#71	0.249750	$MET2	$X=88.9705 $Y=21.66
Re308	OUT#71	OUT#62	0.249750	$MET2	$X=85.7305 $Y=21.66
Re309	OUT#62	OUT#53	0.749250	$MET2	$X=79.2505 $Y=21.66
Re310	OUT#53	OUT#44	0.249750	$MET2	$X=72.7705 $Y=21.66
Re311	OUT#44	OUT#35	0.249750	$MET2	$X=69.5305 $Y=21.66
Re312	OUT#35	OUT#26	0.249750	$MET2	$X=66.2905 $Y=21.66
Re313	OUT#26	OUT#17	2.499750	$MET2	$X=63.0505 $Y=21.66
Re314	GNDA#722	GNDA#456	0.870250	$MET2
+ $X=100.8305 $Y=17.12
Re315	GNDA#456	GNDA#422	0.195792	$MET2
+ $X=99.0405 $Y=17.12
Re316	GNDA#422	GNDA#411	0.053958	$MET2
+ $X=97.77 $Y=17.12
Re317	GNDA#411	GNDA#398	0.195792	$MET2
+ $X=95.8005 $Y=17.12
Re318	GNDA#398	GNDA#387	0.053958	$MET2
+ $X=94.53 $Y=17.12
Re319	GNDA#387	GNDA#374	0.195792	$MET2
+ $X=92.5605 $Y=17.12
Re320	GNDA#374	GNDA#363	0.053958	$MET2
+ $X=91.29 $Y=17.12
Re321	GNDA#363	GNDA#350	0.195792	$MET2
+ $X=89.3205 $Y=17.12
Re322	GNDA#350	GNDA#339	0.053958	$MET2
+ $X=88.05 $Y=17.12
Re323	GNDA#339	GNDA#326	0.195792	$MET2
+ $X=86.0805 $Y=17.12
Re324	GNDA#326	GNDA#315	0.053958	$MET2
+ $X=84.81 $Y=17.12
Re325	GNDA#315	GNDA#302	0.195792	$MET2
+ $X=82.8405 $Y=17.12
Re326	GNDA#302	GNDA#291	0.053958	$MET2
+ $X=81.57 $Y=17.12
Re327	GNDA#291	GNDA#268	0.205812	$MET2
+ $X=79.5355 $Y=17.12
Re328	GNDA#268	GNDA#257	0.141833	$MET2
+ $X=77.2805 $Y=17.12
Re329	GNDA#257	GNDA#243	0.151854	$MET2
+ $X=75.3755 $Y=17.12
Re330	GNDA#243	GNDA#229	0.195792	$MET2
+ $X=73.1205 $Y=17.12
Re331	GNDA#229	GNDA#218	0.053958	$MET2
+ $X=71.85 $Y=17.12
Re332	GNDA#218	GNDA#205	0.195792	$MET2
+ $X=69.8805 $Y=17.12
Re333	GNDA#205	GNDA#194	0.053958	$MET2
+ $X=68.61 $Y=17.12
Re334	GNDA#194	GNDA#181	0.195792	$MET2
+ $X=66.6405 $Y=17.12
Re335	GNDA#181	GNDA#170	0.053958	$MET2
+ $X=65.37 $Y=17.12
Re336	GNDA#170	GNDA#157	0.195792	$MET2
+ $X=63.4005 $Y=17.12
Re337	GNDA#157	GNDA#146	0.053958	$MET2
+ $X=62.13 $Y=17.12
Re338	GNDA#146	GNDA#133	0.195792	$MET2
+ $X=60.1605 $Y=17.12
Re339	GNDA#133	GNDA#122	0.053958	$MET2
+ $X=58.89 $Y=17.12
Re340	GNDA#122	GNDA#88	0.195792	$MET2
+ $X=56.9205 $Y=17.12
Re341	GNDA#88	GNDA#750	0.870250	$MET2
+ $X=55.1305 $Y=17.12
Re342	VDDA#183	VDDA#184	0.127177	$MET2
+ $X=101.858 $Y=115.58
Re343	VDDA#184	VDDA#185	0.230054	$MET2
+ $X=76.9275 $Y=115.58
Re344	VDDA#185	VDDA	0.043436	$MET2	$X=58.1155 $Y=115.58
Re345	VDDA	VDDA#186	0.067742	$MET2	$X=52 $Y=115.58
Re346	VDDA#186	VDDA#187	0.071283	$MET2
+ $X=46.4825 $Y=109.985
Re347	VDDA#187	VDDA#188	0.077323	$MET2
+ $X=46.4825 $Y=106.673
Re348	VDDA#188	VDDA#189	0.229684	$MET2
+ $X=43.485 $Y=102.935
Re349	VDDA#189	VDDA#83	0.087685	$MET2
+ $X=40.4455 $Y=102.935
Re350	VDDA#83	VDDA#82	0.128740	$MET2
+ $X=38.5705 $Y=102.935
Re351	VDDA#82	VDDA#71	0.164219	$MET2
+ $X=35.6805 $Y=102.935
Re352	VDDA#71	VDDA#65	0.164219	$MET2
+ $X=32.4405 $Y=102.935
Re353	VDDA#65	VDDA#59	0.164219	$MET2
+ $X=29.2005 $Y=102.935
Re354	VDDA#59	VDDA#53	0.164219	$MET2
+ $X=25.9605 $Y=102.935
Re355	VDDA#53	VDDA#47	0.164219	$MET2
+ $X=22.7205 $Y=102.935
Re356	VDDA#47	VDDA#41	0.164219	$MET2
+ $X=19.4805 $Y=102.935
Re357	VDDA#41	VDDA#35	0.164219	$MET2
+ $X=16.2405 $Y=102.935
Re358	VDDA#35	VDDA#29	0.164219	$MET2
+ $X=13.0005 $Y=102.935
Re359	VDDA#29	VDDA#17	0.035479	$MET2
+ $X=11.38 $Y=102.935
Re360	VDDA#17	VDDA#16	0.128740	$MET2
+ $X=9.4105 $Y=102.935
Re361	VDDA#16	VDDA#202	0.087685	$MET2
+ $X=7.5355 $Y=102.935
Re362	VDDA#184	VDDA#165	0.357977	$MET2
+ $X=92.6075 $Y=110.06
Re363	VDDA#185	VDDA#149	0.487894	$MET2
+ $X=61.5625 $Y=110.0375
Re364	VDDA#188	VDDA#94	0.084479	$MET2
+ $X=48.7525 $Y=104.775
Re365	VDDA#94	VDDA#96	0.105425	$MET2
+ $X=50.4595 $Y=104.775
Re366	VDDA#96	VDDA#98	0.105425	$MET2
+ $X=52.5395 $Y=104.775
Re367	VDDA#98	VDDA#100	0.105425	$MET2
+ $X=54.6195 $Y=104.775
Re368	VDDA#100	VDDA#102	1.605425	$MET2
+ $X=56.6995 $Y=104.775
Re369	VDDA#202	VDDA#210	0.688222	$MET2
+ $X=2.685 $Y=106.0195
Re370	VDDA#210	VDDA#186	0.158247	$MET2
+ $X=44.65 $Y=115.58
Re439	D#135	D#163	4.500000	$MET2	$X=35.33 $Y=90.265
Re440	D#119	D#164	4.500000	$MET2	$X=32.09 $Y=90.265
Re441	D#106	D#165	4.500000	$MET2	$X=28.85 $Y=90.265
Re442	D#90	D#166	4.500000	$MET2	$X=25.61 $Y=90.265
Re443	D#77	D#167	4.500000	$MET2	$X=22.37 $Y=90.265
Re444	D#61	D#168	4.500000	$MET2	$X=19.13 $Y=90.265
Re445	D#48	D#169	4.500000	$MET2	$X=15.89 $Y=90.265
Re698	VDDA#110	VDDA#187	0.214286	$MET2
+ $X=46.475 $Y=108.605
Rf1	VDDA#10	VDDA#11	1.210344	$MET1
+ $X=10.68 $Y=100.725
Rf2	VDDA#11	VDDA#1	1.383355	$MET1	$X=10.68 $Y=91.2705
Rf3	VDDA#1	VDDA#14	1.383355	$MET1	$X=8.14 $Y=91.2695
Rf4	VDDA#14	VDDA#15	1.210344	$MET1
+ $X=8.14 $Y=100.0045
Rf5	VDDA#15	VDDA#16	2.031781	$MET1
+ $X=8.14 $Y=101.8095
Rf6	VDDA#10	VDDA#17	2.031781	$MET1
+ $X=10.68 $Y=101.8095
Rf7	VDDA#9	VDDA#10	2.500000	$MET1	$X=10.68 $Y=100.725
Rf8	VDDA#9	VDDA#11	0.416667	$MET1	$X=10.68 $Y=95.695
Rf9	VDDA#13	VDDA#14	0.416667	$MET1
+ $X=8.14 $Y=95.695
Rf10	VDDA#13	VDDA#15	2.500000	$MET1
+ $X=8.14 $Y=100.725
Rf11	VDDA#19	VDDA#3	0.518308	$MET1	$X=10.68 $Y=89.2995
Rf12	VDDA#3	VDDA#22	0.518308	$MET1	$X=8.14 $Y=89.3005
Rf13	VDDA#22	VDDA#23	1.209742	$MET1
+ $X=8.14 $Y=87.758
Rf14	VDDA#23	VDDA#24	2.897430	$MET1
+ $X=8.14 $Y=78.7605
Rf15	VDDA#19	VDDA#25	1.209742	$MET1
+ $X=10.68 $Y=87.758
Rf16	VDDA#25	VDDA#26	2.897430	$MET1
+ $X=10.68 $Y=78.7605
Rf17	VDDA#18	VDDA#19	2.500000	$MET1
+ $X=10.68 $Y=88.47
Rf18	VDDA#21	VDDA#22	2.500000	$MET1
+ $X=8.14 $Y=88.47
Rf19	VDDA#21	VDDA#23	0.416667	$MET1
+ $X=8.14 $Y=83.4425
Rf20	VDDA#18	VDDA#25	0.416667	$MET1
+ $X=10.68 $Y=83.4425
Rf21	VDDA#28	VDDA#29	2.031781	$MET1
+ $X=11.38 $Y=101.8095
Rf22	VDDA#28	VDDA#27	1.627010	$MET1
+ $X=11.38 $Y=100.0055
Rf23	VDDA#27	VDDA#28	2.500000	$MET1
+ $X=11.38 $Y=100.725
Rf24	VDDA#30	VDDA#31	3.709742	$MET1
+ $X=11.38 $Y=88.47
Rf25	VDDA#31	VDDA#32	2.897430	$MET1
+ $X=11.38 $Y=78.7605
Rf26	VDDA#30	VDDA#31	0.416667	$MET1
+ $X=11.38 $Y=83.4425
Rf27	D#33	D	0.228049	$MET1	$X=13.2305 $Y=91.055
Rf28	D	D#35	0.158357	$MET1	$X=12.65 $Y=90.675
Rf29	D#35	D#3	0.150251	$MET1	$X=12.65 $Y=89.8755
Rf30	D#3	D#37	0.228169	$MET1	$X=12.07 $Y=89.515
Rf31	D	D#38	0.228169	$MET1	$X=12.07 $Y=91.055
Rf32	D#3	D#39	0.228049	$MET1	$X=13.2295 $Y=89.515
Rf33	D#41	D#42	0.974531	$MET1	$X=13.92 $Y=102.7295
Rf34	D#41	D#40	1.627010	$MET1	$X=13.92 $Y=100.0055
Rf35	D#40	D#41	2.500000	$MET1	$X=13.92 $Y=100.725
Rf36	C#18	C#19	3.709742	$MET1	$X=13.92 $Y=88.47
Rf37	C#19	C#20	3.340180	$MET1	$X=13.92 $Y=77.8405
Rf38	C#18	C#19	0.416667	$MET1	$X=13.92 $Y=83.4425
Rf39	B#2	B#3	2.012531	$MET1	$X=14.05 $Y=61.9345
Rf40	B#2	B	1.627010	$MET1	$X=14.05 $Y=60.1705
Rf41	B	B#2	2.500000	$MET1	$X=14.05 $Y=60.89
Rf42	B#4	B#5	3.709742	$MET1	$X=14.05 $Y=47.935
Rf43	B#5	B#6	2.878180	$MET1	$X=14.05 $Y=38.2655
Rf44	B#4	B#5	0.416667	$MET1	$X=14.05 $Y=42.9075
Rf45	VDDA#34	VDDA#35	2.031781	$MET1
+ $X=14.62 $Y=101.8095
Rf46	VDDA#34	VDDA#33	1.627010	$MET1
+ $X=14.62 $Y=100.0055
Rf47	VDDA#33	VDDA#34	2.500000	$MET1
+ $X=14.62 $Y=100.725
Rf48	VDDA#36	VDDA#37	3.709742	$MET1
+ $X=14.62 $Y=88.47
Rf49	VDDA#37	VDDA#38	2.897430	$MET1
+ $X=14.62 $Y=78.7605
Rf50	VDDA#36	VDDA#37	0.416667	$MET1
+ $X=14.62 $Y=83.4425
Rf51	INP#21	INP#1	8.382071	$MET1	$X=14.82 $Y=50.8595
Rf52	INN#21	INN#1	8.382071	$MET1	$X=14.82 $Y=49.3405
Rf53	C#22	C#23	2.455281	$MET1	$X=15.59 $Y=62.8545
Rf54	C#22	C#21	1.627010	$MET1	$X=15.59 $Y=60.1705
Rf55	C#21	C#22	2.500000	$MET1	$X=15.59 $Y=60.89
Rf56	D#43	D#44	3.709742	$MET1	$X=15.59 $Y=47.935
Rf57	D#44	D#45	3.320930	$MET1	$X=15.59 $Y=37.3455
Rf58	D#43	D#44	0.416667	$MET1	$X=15.59 $Y=42.9075
Rf59	B#8	B#9	2.012531	$MET1	$X=16.29 $Y=61.9345
Rf60	B#8	B#7	1.627010	$MET1	$X=16.29 $Y=60.1705
Rf61	B#7	B#8	2.500000	$MET1	$X=16.29 $Y=60.89
Rf62	B#10	B#11	3.709742	$MET1	$X=16.29 $Y=47.935
Rf63	B#11	B#12	2.878180	$MET1	$X=16.29 $Y=38.2655
Rf64	B#10	B#11	0.416667	$MET1	$X=16.29 $Y=42.9075
Rf65	D#46	D#5	0.228049	$MET1	$X=16.4705 $Y=91.055
Rf66	D#5	D#48	0.158357	$MET1	$X=15.89 $Y=90.675
Rf67	D#48	D#7	0.150251	$MET1	$X=15.89 $Y=89.8755
Rf68	D#7	D#50	0.228169	$MET1	$X=15.31 $Y=89.515
Rf69	D#5	D#51	0.228169	$MET1	$X=15.31 $Y=91.055
Rf70	D#7	D#52	0.228049	$MET1	$X=16.4695 $Y=89.515
Rf71	C#25	C#26	2.917281	$MET1	$X=17.16 $Y=103.6495
Rf72	C#25	C#24	1.627010	$MET1	$X=17.16 $Y=100.0055
Rf73	C#24	C#25	2.500000	$MET1	$X=17.16 $Y=100.725
Rf74	D#53	D#54	3.709742	$MET1	$X=17.16 $Y=88.47
Rf75	D#54	D#55	2.282930	$MET1	$X=17.16 $Y=76.9205
Rf76	D#53	D#54	0.416667	$MET1	$X=17.16 $Y=83.4425
Rf77	INN#3	INN#24	8.594357	$MET1	$X=16.72 $Y=50.4905
Rf78	INP#23	INP#3	8.594877	$MET1	$X=17.4 $Y=49.7105
Rf79	D#57	D#58	2.898031	$MET1	$X=17.83 $Y=63.7745
Rf80	D#57	D#56	1.627010	$MET1	$X=17.83 $Y=60.1705
Rf81	D#56	D#57	2.500000	$MET1	$X=17.83 $Y=60.89
Rf82	C#27	C#28	3.709742	$MET1	$X=17.83 $Y=47.935
Rf83	C#28	C#29	3.763680	$MET1	$X=17.83 $Y=36.4255
Rf84	C#27	C#28	0.416667	$MET1	$X=17.83 $Y=42.9075
Rf85	VDDA#40	VDDA#41	2.031781	$MET1
+ $X=17.86 $Y=101.8095
Rf86	VDDA#40	VDDA#39	1.627010	$MET1
+ $X=17.86 $Y=100.0055
Rf87	VDDA#39	VDDA#40	2.500000	$MET1
+ $X=17.86 $Y=100.725
Rf88	VDDA#42	VDDA#43	3.709742	$MET1
+ $X=17.86 $Y=88.47
Rf89	VDDA#43	VDDA#44	2.897430	$MET1
+ $X=17.86 $Y=78.7605
Rf90	VDDA#42	VDDA#43	0.416667	$MET1
+ $X=17.86 $Y=83.4425
Rf91	A#73	A#74	1.698062	$MET1	$X=18.2 $Y=23.8345
Rf92	B#14	B#15	2.012531	$MET1	$X=18.53 $Y=61.9345
Rf93	B#14	B#13	1.627010	$MET1	$X=18.53 $Y=60.1705
Rf94	B#13	B#14	2.500000	$MET1	$X=18.53 $Y=60.89
Rf95	B#16	B#17	3.709742	$MET1	$X=18.53 $Y=47.935
Rf96	B#17	B#18	2.878180	$MET1	$X=18.53 $Y=38.2655
Rf97	B#16	B#17	0.416667	$MET1	$X=18.53 $Y=42.9075
Rf98	BIAS#47	BIAS#48	3.640812	$MET1
+ $X=18.99 $Y=24.7545
Rf99	INP#25	INP#5	8.382071	$MET1	$X=19.3 $Y=50.8595
Rf100	INN#25	INN#5	8.382071	$MET1	$X=19.3 $Y=49.3405
Rf101	A#75	A#76	3.198062	$MET1	$X=19.78 $Y=23.8345
Rf102	D#59	D#9	0.228049	$MET1	$X=19.7105 $Y=91.055
Rf103	D#9	D#61	0.158357	$MET1	$X=19.13 $Y=90.675
Rf104	D#61	D#11	0.150251	$MET1	$X=19.13 $Y=89.8755
Rf105	D#11	D#63	0.228169	$MET1	$X=18.55 $Y=89.515
Rf106	D#9	D#64	0.228169	$MET1	$X=18.55 $Y=91.055
Rf107	D#11	D#65	0.228049	$MET1	$X=19.7095 $Y=89.515
Rf108	C#31	C#32	2.455281	$MET1	$X=20.07 $Y=62.8545
Rf109	C#31	C#30	1.627010	$MET1	$X=20.07 $Y=60.1705
Rf110	C#30	C#31	2.500000	$MET1	$X=20.07 $Y=60.89
Rf111	D#66	D#67	3.709742	$MET1	$X=20.07 $Y=47.935
Rf112	D#67	D#68	3.320930	$MET1	$X=20.07 $Y=37.3455
Rf113	D#66	D#67	0.416667	$MET1	$X=20.07 $Y=42.9075
Rf114	D#70	D#71	2.474531	$MET1	$X=20.4 $Y=102.7295
Rf115	D#70	D#69	1.627010	$MET1	$X=20.4 $Y=100.0055
Rf116	D#69	D#70	2.500000	$MET1	$X=20.4 $Y=100.725
Rf117	C#33	C#34	3.709742	$MET1	$X=20.4 $Y=88.47
Rf118	C#34	C#35	3.340180	$MET1	$X=20.4 $Y=77.8405
Rf119	C#33	C#34	0.416667	$MET1	$X=20.4 $Y=83.4425
Rf120	BIAS#49	BIAS#50	3.640812	$MET1
+ $X=20.57 $Y=24.7545
Rf121	B#20	B#21	2.012531	$MET1	$X=20.77 $Y=61.9345
Rf122	B#20	B#19	1.627010	$MET1	$X=20.77 $Y=60.1705
Rf123	B#19	B#20	2.500000	$MET1	$X=20.77 $Y=60.89
Rf124	B#22	B#23	3.709742	$MET1	$X=20.77 $Y=47.935
Rf125	B#23	B#24	2.878180	$MET1	$X=20.77 $Y=38.2655
Rf126	B#22	B#23	0.416667	$MET1	$X=20.77 $Y=42.9075
Rf127	VDDA#46	VDDA#47	2.031781	$MET1
+ $X=21.1 $Y=101.8095
Rf128	VDDA#46	VDDA#45	1.627010	$MET1
+ $X=21.1 $Y=100.0055
Rf129	VDDA#45	VDDA#46	2.500000	$MET1
+ $X=21.1 $Y=100.725
Rf130	VDDA#48	VDDA#49	3.709742	$MET1
+ $X=21.1 $Y=88.47
Rf131	VDDA#49	VDDA#50	2.897430	$MET1
+ $X=21.1 $Y=78.7605
Rf132	VDDA#48	VDDA#49	0.416667	$MET1
+ $X=21.1 $Y=83.4425
Rf133	A#77	A#78	3.198062	$MET1	$X=21.36 $Y=23.8345
Rf134	INN#7	INN#28	8.594357	$MET1	$X=21.2 $Y=50.4905
Rf135	INP#27	INP#7	8.594877	$MET1	$X=21.88 $Y=49.7105
Rf136	BIAS#51	BIAS#52	3.640812	$MET1
+ $X=22.15 $Y=24.7545
Rf137	D#73	D#74	2.898031	$MET1	$X=22.31 $Y=63.7745
Rf138	D#73	D#72	1.627010	$MET1	$X=22.31 $Y=60.1705
Rf139	D#72	D#73	2.500000	$MET1	$X=22.31 $Y=60.89
Rf140	C#36	C#37	3.709742	$MET1	$X=22.31 $Y=47.935
Rf141	C#37	C#38	3.763680	$MET1	$X=22.31 $Y=36.4255
Rf142	C#36	C#37	0.416667	$MET1	$X=22.31 $Y=42.9075
Rf143	A#79	A#80	3.198062	$MET1	$X=22.94 $Y=23.8345
Rf144	B#26	B#27	2.012531	$MET1	$X=23.01 $Y=61.9345
Rf145	B#26	B#25	1.627010	$MET1	$X=23.01 $Y=60.1705
Rf146	B#25	B#26	2.500000	$MET1	$X=23.01 $Y=60.89
Rf147	B#28	B#29	3.709742	$MET1	$X=23.01 $Y=47.935
Rf148	B#29	B#30	2.878180	$MET1	$X=23.01 $Y=38.2655
Rf149	B#28	B#29	0.416667	$MET1	$X=23.01 $Y=42.9075
Rf150	D#75	D#13	0.228049	$MET1	$X=22.9505 $Y=91.055
Rf151	D#13	D#77	0.158357	$MET1	$X=22.37 $Y=90.675
Rf152	D#77	D#15	0.150251	$MET1	$X=22.37 $Y=89.8755
Rf153	D#15	D#79	0.228169	$MET1	$X=21.79 $Y=89.515
Rf154	D#13	D#80	0.228169	$MET1	$X=21.79 $Y=91.055
Rf155	D#15	D#81	0.228049	$MET1	$X=22.9495 $Y=89.515
Rf156	C#40	C#41	2.917281	$MET1	$X=23.64 $Y=103.6495
Rf157	C#40	C#39	1.627010	$MET1	$X=23.64 $Y=100.0055
Rf158	C#39	C#40	2.500000	$MET1	$X=23.64 $Y=100.725
Rf159	D#82	D#83	3.709742	$MET1	$X=23.64 $Y=88.47
Rf160	D#83	D#84	3.782930	$MET1	$X=23.64 $Y=76.9205
Rf161	D#82	D#83	0.416667	$MET1	$X=23.64 $Y=83.4425
Rf162	BIAS#53	BIAS#54	3.640812	$MET1
+ $X=23.73 $Y=24.7545
Rf163	INP#29	INP#9	8.382071	$MET1	$X=23.78 $Y=50.8595
Rf164	INN#29	INN#9	8.382071	$MET1	$X=23.78 $Y=49.3405
Rf165	VDDA#52	VDDA#53	2.031781	$MET1
+ $X=24.34 $Y=101.8095
Rf166	VDDA#52	VDDA#51	1.627010	$MET1
+ $X=24.34 $Y=100.0055
Rf167	VDDA#51	VDDA#52	2.500000	$MET1
+ $X=24.34 $Y=100.725
Rf168	VDDA#54	VDDA#55	3.709742	$MET1
+ $X=24.34 $Y=88.47
Rf169	VDDA#55	VDDA#56	2.897430	$MET1
+ $X=24.34 $Y=78.7605
Rf170	VDDA#54	VDDA#55	0.416667	$MET1
+ $X=24.34 $Y=83.4425
Rf171	A#81	A#82	1.698062	$MET1	$X=24.52 $Y=23.8345
Rf172	C#43	C#44	2.455281	$MET1	$X=24.55 $Y=62.8545
Rf173	C#43	C#42	1.627010	$MET1	$X=24.55 $Y=60.1705
Rf174	C#42	C#43	2.500000	$MET1	$X=24.55 $Y=60.89
Rf175	D#85	D#86	3.709742	$MET1	$X=24.55 $Y=47.935
Rf176	D#86	D#87	3.320930	$MET1	$X=24.55 $Y=37.3455
Rf177	D#85	D#86	0.416667	$MET1	$X=24.55 $Y=42.9075
Rf178	B#32	B#33	2.012531	$MET1	$X=25.25 $Y=61.9345
Rf179	B#32	B#31	1.627010	$MET1	$X=25.25 $Y=60.1705
Rf180	B#31	B#32	2.500000	$MET1	$X=25.25 $Y=60.89
Rf181	B#34	B#35	3.709742	$MET1	$X=25.25 $Y=47.935
Rf182	B#35	B#36	2.878180	$MET1	$X=25.25 $Y=38.2655
Rf183	B#34	B#35	0.416667	$MET1	$X=25.25 $Y=42.9075
Rf184	INN#11	INN#32	8.594357	$MET1	$X=25.68 $Y=50.4905
Rf185	INP#31	INP#11	8.594877	$MET1	$X=26.36 $Y=49.7105
Rf186	D#88	D#17	0.228049	$MET1	$X=26.1905 $Y=91.055
Rf187	D#17	D#90	0.158357	$MET1	$X=25.61 $Y=90.675
Rf188	D#90	D#19	0.150251	$MET1	$X=25.61 $Y=89.8755
Rf189	D#19	D#92	0.228169	$MET1	$X=25.03 $Y=89.515
Rf190	D#17	D#93	0.228169	$MET1	$X=25.03 $Y=91.055
Rf191	D#19	D#94	0.228049	$MET1	$X=26.1895 $Y=89.515
Rf192	D#96	D#97	2.898031	$MET1	$X=26.79 $Y=63.7745
Rf193	D#96	D#95	1.627010	$MET1	$X=26.79 $Y=60.1705
Rf194	D#95	D#96	2.500000	$MET1	$X=26.79 $Y=60.89
Rf195	C#45	C#46	3.709742	$MET1	$X=26.79 $Y=47.935
Rf196	C#46	C#47	3.763680	$MET1	$X=26.79 $Y=36.4255
Rf197	C#45	C#46	0.416667	$MET1	$X=26.79 $Y=42.9075
Rf198	C#49	C#50	2.917281	$MET1	$X=26.88 $Y=103.6495
Rf199	C#49	C#48	1.627010	$MET1	$X=26.88 $Y=100.0055
Rf200	C#48	C#49	2.500000	$MET1	$X=26.88 $Y=100.725
Rf201	D#98	D#99	3.709742	$MET1	$X=26.88 $Y=88.47
Rf202	D#99	D#100	3.782930	$MET1	$X=26.88 $Y=76.9205
Rf203	D#98	D#99	0.416667	$MET1	$X=26.88 $Y=83.4425
Rf204	B#38	B#39	2.012531	$MET1	$X=27.49 $Y=61.9345
Rf205	B#38	B#37	1.627010	$MET1	$X=27.49 $Y=60.1705
Rf206	B#37	B#38	2.500000	$MET1	$X=27.49 $Y=60.89
Rf207	B#40	B#41	3.709742	$MET1	$X=27.49 $Y=47.935
Rf208	B#41	B#42	2.878180	$MET1	$X=27.49 $Y=38.2655
Rf209	B#40	B#41	0.416667	$MET1	$X=27.49 $Y=42.9075
Rf210	VDDA#58	VDDA#59	2.031781	$MET1
+ $X=27.58 $Y=101.8095
Rf211	VDDA#58	VDDA#57	1.627010	$MET1
+ $X=27.58 $Y=100.0055
Rf212	VDDA#57	VDDA#58	2.500000	$MET1
+ $X=27.58 $Y=100.725
Rf213	VDDA#60	VDDA#61	3.709742	$MET1
+ $X=27.58 $Y=88.47
Rf214	VDDA#61	VDDA#62	2.897430	$MET1
+ $X=27.58 $Y=78.7605
Rf215	VDDA#60	VDDA#61	0.416667	$MET1
+ $X=27.58 $Y=83.4425
Rf216	INP#33	INP#13	8.382071	$MET1	$X=28.26 $Y=50.8595
Rf217	INN#33	INN#13	8.382071	$MET1	$X=28.26 $Y=49.3405
Rf218	C#52	C#53	2.455281	$MET1	$X=29.03 $Y=62.8545
Rf219	C#52	C#51	1.627010	$MET1	$X=29.03 $Y=60.1705
Rf220	C#51	C#52	2.500000	$MET1	$X=29.03 $Y=60.89
Rf221	D#101	D#102	3.709742	$MET1	$X=29.03 $Y=47.935
Rf222	D#102	D#103	3.320930	$MET1	$X=29.03 $Y=37.3455
Rf223	D#101	D#102	0.416667	$MET1	$X=29.03 $Y=42.9075
Rf224	D#104	D#21	0.228049	$MET1	$X=29.4305 $Y=91.055
Rf225	D#21	D#106	0.158357	$MET1	$X=28.85 $Y=90.675
Rf226	D#106	D#23	0.150251	$MET1	$X=28.85 $Y=89.8755
Rf227	D#23	D#108	0.228169	$MET1	$X=28.27 $Y=89.515
Rf228	D#21	D#109	0.228169	$MET1	$X=28.27 $Y=91.055
Rf229	D#23	D#110	0.228049	$MET1	$X=29.4295 $Y=89.515
Rf230	B#44	B#45	2.012531	$MET1	$X=29.73 $Y=61.9345
Rf231	B#44	B#43	1.627010	$MET1	$X=29.73 $Y=60.1705
Rf232	B#43	B#44	2.500000	$MET1	$X=29.73 $Y=60.89
Rf233	B#46	B#47	3.709742	$MET1	$X=29.73 $Y=47.935
Rf234	B#47	B#48	2.878180	$MET1	$X=29.73 $Y=38.2655
Rf235	B#46	B#47	0.416667	$MET1	$X=29.73 $Y=42.9075
Rf236	D#112	D#113	2.474531	$MET1	$X=30.12 $Y=102.7295
Rf237	D#112	D#111	1.627010	$MET1	$X=30.12 $Y=100.0055
Rf238	D#111	D#112	2.500000	$MET1	$X=30.12 $Y=100.725
Rf239	C#54	C#55	3.709742	$MET1	$X=30.12 $Y=88.47
Rf240	C#55	C#56	3.340180	$MET1	$X=30.12 $Y=77.8405
Rf241	C#54	C#55	0.416667	$MET1	$X=30.12 $Y=83.4425
Rf242	INN#15	INN#36	8.594357	$MET1	$X=30.16 $Y=50.4905
Rf243	VDDA#64	VDDA#65	2.031781	$MET1
+ $X=30.82 $Y=101.8095
Rf244	VDDA#64	VDDA#63	1.627010	$MET1
+ $X=30.82 $Y=100.0055
Rf245	VDDA#63	VDDA#64	2.500000	$MET1
+ $X=30.82 $Y=100.725
Rf246	VDDA#66	VDDA#67	3.709742	$MET1
+ $X=30.82 $Y=88.47
Rf247	VDDA#67	VDDA#68	2.897430	$MET1
+ $X=30.82 $Y=78.7605
Rf248	VDDA#66	VDDA#67	0.416667	$MET1
+ $X=30.82 $Y=83.4425
Rf249	net5	net5#2	1.698062	$MET1	$X=30.845 $Y=23.8345
Rf250	INP#35	INP#15	8.594877	$MET1	$X=30.84 $Y=49.7105
Rf251	D#115	D#116	2.898031	$MET1	$X=31.27 $Y=63.7745
Rf252	D#115	D#114	1.627010	$MET1	$X=31.27 $Y=60.1705
Rf253	D#114	D#115	2.500000	$MET1	$X=31.27 $Y=60.89
Rf254	C#57	C#58	3.709742	$MET1	$X=31.27 $Y=47.935
Rf255	C#58	C#59	3.763680	$MET1	$X=31.27 $Y=36.4255
Rf256	C#57	C#58	0.416667	$MET1	$X=31.27 $Y=42.9075
Rf257	B#49	B#50	2.140812	$MET1	$X=31.635 $Y=24.7545
Rf258	B#52	B#53	2.012531	$MET1	$X=31.97 $Y=61.9345
Rf259	B#52	B#51	1.627010	$MET1	$X=31.97 $Y=60.1705
Rf260	B#51	B#52	2.500000	$MET1	$X=31.97 $Y=60.89
Rf261	B#54	B#55	3.709742	$MET1	$X=31.97 $Y=47.935
Rf262	B#55	B#56	2.878180	$MET1	$X=31.97 $Y=38.2655
Rf263	B#54	B#55	0.416667	$MET1	$X=31.97 $Y=42.9075
Rf264	net5#3	net5#4	3.198062	$MET1	$X=32.425 $Y=23.8345
Rf265	D#117	D#25	0.228049	$MET1	$X=32.6705 $Y=91.055
Rf266	D#25	D#119	0.158357	$MET1	$X=32.09 $Y=90.675
Rf267	D#119	D#27	0.150251	$MET1	$X=32.09 $Y=89.8755
Rf268	D#27	D#121	0.228169	$MET1	$X=31.51 $Y=89.515
Rf269	D#25	D#122	0.228169	$MET1	$X=31.51 $Y=91.055
Rf270	D#27	D#123	0.228049	$MET1	$X=32.6695 $Y=89.515
Rf271	INP#37	INP#17	8.382071	$MET1	$X=32.74 $Y=50.8595
Rf272	INN#37	INN#17	8.382071	$MET1	$X=32.74 $Y=49.3405
Rf273	B#57	B#58	3.640812	$MET1	$X=33.215 $Y=24.7545
Rf274	C#61	C#62	1.417281	$MET1	$X=33.36 $Y=103.6495
Rf275	C#61	C#60	1.627010	$MET1	$X=33.36 $Y=100.0055
Rf276	C#60	C#61	2.500000	$MET1	$X=33.36 $Y=100.725
Rf277	D#124	D#125	3.709742	$MET1	$X=33.36 $Y=88.47
Rf278	D#125	D#126	3.782930	$MET1	$X=33.36 $Y=76.9205
Rf279	D#124	D#125	0.416667	$MET1	$X=33.36 $Y=83.4425
Rf280	C#64	C#65	2.455281	$MET1	$X=33.51 $Y=62.8545
Rf281	C#64	C#63	1.627010	$MET1	$X=33.51 $Y=60.1705
Rf282	C#63	C#64	2.500000	$MET1	$X=33.51 $Y=60.89
Rf283	D#127	D#128	3.709742	$MET1	$X=33.51 $Y=47.935
Rf284	D#128	D#129	3.320930	$MET1	$X=33.51 $Y=37.3455
Rf285	D#127	D#128	0.416667	$MET1	$X=33.51 $Y=42.9075
Rf286	net5#5	net5#6	3.198062	$MET1	$X=34.005 $Y=23.8345
Rf287	VDDA#70	VDDA#71	2.031781	$MET1
+ $X=34.06 $Y=101.8095
Rf288	VDDA#70	VDDA#69	1.627010	$MET1
+ $X=34.06 $Y=100.0055
Rf289	VDDA#69	VDDA#70	2.500000	$MET1
+ $X=34.06 $Y=100.725
Rf290	VDDA#72	VDDA#73	3.709742	$MET1
+ $X=34.06 $Y=88.47
Rf291	VDDA#73	VDDA#74	2.897430	$MET1
+ $X=34.06 $Y=78.7605
Rf292	VDDA#72	VDDA#73	0.416667	$MET1
+ $X=34.06 $Y=83.4425
Rf293	B#60	B#61	2.012531	$MET1	$X=34.21 $Y=61.9345
Rf294	B#60	B#59	1.627010	$MET1	$X=34.21 $Y=60.1705
Rf295	B#59	B#60	2.500000	$MET1	$X=34.21 $Y=60.89
Rf296	B#62	B#63	3.709742	$MET1	$X=34.21 $Y=47.935
Rf297	B#63	B#64	2.878180	$MET1	$X=34.21 $Y=38.2655
Rf298	B#62	B#63	0.416667	$MET1	$X=34.21 $Y=42.9075
Rf299	B#65	B#66	3.640812	$MET1	$X=34.795 $Y=24.7545
Rf300	INN#19	INN#40	4.094356	$MET1	$X=34.64 $Y=50.4905
Rf301	INP#39	INP#19	4.094878	$MET1	$X=35.32 $Y=49.7105
Rf302	net5#7	net5#8	3.198062	$MET1	$X=35.585 $Y=23.8345
Rf303	D#131	D#132	2.898031	$MET1	$X=35.75 $Y=63.7745
Rf304	D#131	D#130	1.627010	$MET1	$X=35.75 $Y=60.1705
Rf305	D#130	D#131	2.500000	$MET1	$X=35.75 $Y=60.89
Rf306	C#66	C#67	3.709742	$MET1	$X=35.75 $Y=47.935
Rf307	C#67	C#68	3.763680	$MET1	$X=35.75 $Y=36.4255
Rf308	C#66	C#67	0.416667	$MET1	$X=35.75 $Y=42.9075
Rf309	D#133	D#29	0.228049	$MET1	$X=35.9105 $Y=91.055
Rf310	D#29	D#135	0.158357	$MET1	$X=35.33 $Y=90.675
Rf311	D#135	D#31	0.150251	$MET1	$X=35.33 $Y=89.8755
Rf312	D#31	D#137	0.228169	$MET1	$X=34.75 $Y=89.515
Rf313	D#29	D#138	0.228169	$MET1	$X=34.75 $Y=91.055
Rf314	D#31	D#139	0.228049	$MET1	$X=35.9095 $Y=89.515
Rf315	B#67	B#68	3.640812	$MET1	$X=36.375 $Y=24.7545
Rf316	D#141	D#142	2.474531	$MET1	$X=36.6 $Y=102.7295
Rf317	D#141	D#140	1.627010	$MET1	$X=36.6 $Y=100.0055
Rf318	D#140	D#141	2.500000	$MET1	$X=36.6 $Y=100.725
Rf319	C#69	C#70	3.709742	$MET1	$X=36.6 $Y=88.47
Rf320	C#70	C#71	3.340180	$MET1	$X=36.6 $Y=77.8405
Rf321	C#69	C#70	0.416667	$MET1	$X=36.6 $Y=83.4425
Rf322	net5#9	net5#10	3.198062	$MET1	$X=37.165 $Y=23.8345
Rf323	B#69	B#70	3.640812	$MET1	$X=37.955 $Y=24.7545
Rf324	net5#11	net5#12	3.198062	$MET1
+ $X=38.745 $Y=23.8345
Rf325	B#71	B#72	3.640812	$MET1	$X=39.535 $Y=24.7545
Rf326	VDDA#76	VDDA#77	1.210344	$MET1
+ $X=39.84 $Y=100.725
Rf327	VDDA#77	VDDA#5	1.383355	$MET1	$X=39.84 $Y=91.2705
Rf328	VDDA#5	VDDA#80	1.383355	$MET1	$X=37.3 $Y=91.2695
Rf329	VDDA#80	VDDA#81	1.210344	$MET1
+ $X=37.3 $Y=100.0045
Rf330	VDDA#81	VDDA#82	2.031781	$MET1
+ $X=37.3 $Y=101.8095
Rf331	VDDA#76	VDDA#83	2.031781	$MET1
+ $X=39.84 $Y=101.8095
Rf332	VDDA#75	VDDA#76	2.500000	$MET1
+ $X=39.84 $Y=100.725
Rf333	VDDA#75	VDDA#77	0.416667	$MET1
+ $X=39.84 $Y=95.695
Rf334	VDDA#79	VDDA#80	0.416667	$MET1
+ $X=37.3 $Y=95.695
Rf335	VDDA#79	VDDA#81	2.500000	$MET1
+ $X=37.3 $Y=100.725
Rf336	VDDA#85	VDDA#7	0.518308	$MET1	$X=39.84 $Y=89.2995
Rf337	VDDA#7	VDDA#88	0.518308	$MET1	$X=37.3 $Y=89.3005
Rf338	VDDA#88	VDDA#89	1.209742	$MET1
+ $X=37.3 $Y=87.758
Rf339	VDDA#89	VDDA#90	2.897430	$MET1
+ $X=37.3 $Y=78.7605
Rf340	VDDA#85	VDDA#91	1.209742	$MET1
+ $X=39.84 $Y=87.758
Rf341	VDDA#91	VDDA#92	2.897430	$MET1
+ $X=39.84 $Y=78.7605
Rf342	VDDA#84	VDDA#85	2.500000	$MET1
+ $X=39.84 $Y=88.47
Rf343	VDDA#87	VDDA#88	2.500000	$MET1
+ $X=37.3 $Y=88.47
Rf344	VDDA#87	VDDA#89	0.416667	$MET1
+ $X=37.3 $Y=83.4425
Rf345	VDDA#84	VDDA#91	0.416667	$MET1
+ $X=39.84 $Y=83.4425
Rf346	net5#13	net5#14	3.198062	$MET1
+ $X=40.325 $Y=23.8345
Rf347	B#73	B#74	3.640812	$MET1	$X=41.115 $Y=24.7545
Rf348	net5#15	net5#16	3.198062	$MET1
+ $X=41.905 $Y=23.8345
Rf349	B#75	B#76	3.640812	$MET1	$X=42.695 $Y=24.7545
Rf350	BIAS#18	BIAS#56	2.535030	$MET1
+ $X=39.853 $Y=18.12
Rf351	BIAS#56	BIAS#57	2.249163	$MET1
+ $X=28.7455 $Y=18.12
Rf352	BIAS#57	BIAS#5	1.753452	$MET1	$X=25.0225 $Y=18.12
Rf353	BIAS#57	BIAS#59	1.366724	$MET1
+ $X=26.085 $Y=22.2825
Rf354	net5#17	net5#18	3.198062	$MET1
+ $X=43.485 $Y=23.8345
Rf355	VDDA#93	VDDA#94	3.666531	$MET1
+ $X=49.42 $Y=103.6495
Rf356	OUT#1	OUT#2	2.609281	$MET1	$X=50.46 $Y=104.5695
Rf357	C#72	C	2.444045	$MET1	$X=50.5 $Y=95.625
Rf358	VDDA#95	VDDA#96	3.666531	$MET1
+ $X=51.5 $Y=103.6495
Rf359	OUT#3	OUT#4	4.109282	$MET1	$X=52.54 $Y=104.5695
Rf360	VDDA#97	VDDA#98	3.666531	$MET1
+ $X=53.58 $Y=103.6495
Rf361	OUT#5	OUT#6	4.109282	$MET1	$X=54.62 $Y=104.5695
Rf362	GNDA#78	GNDA#79	3.709742	$MET1
+ $X=55.65 $Y=67.085
Rf363	GNDA#79	GNDA#80	3.519898	$MET1
+ $X=55.65 $Y=57.5105
Rf364	GNDA#78	GNDA#79	0.416667	$MET1
+ $X=55.65 $Y=62.0575
Rf365	GNDA#81	GNDA#82	3.709742	$MET1
+ $X=55.65 $Y=50.865
Rf366	GNDA#82	GNDA#83	3.519898	$MET1
+ $X=55.65 $Y=41.2905
Rf367	GNDA#81	GNDA#82	0.416667	$MET1
+ $X=55.65 $Y=45.8375
Rf368	GNDA#84	GNDA#85	3.709742	$MET1
+ $X=55.65 $Y=34.645
Rf369	GNDA#85	GNDA#86	3.519898	$MET1
+ $X=55.65 $Y=25.0705
Rf370	GNDA#84	GNDA#85	0.416667	$MET1
+ $X=55.65 $Y=29.6175
Rf371	GNDA#87	GNDA#88	6.358531	$MET1
+ $X=55.65 $Y=17.8505
Rf372	VDDA#99	VDDA#100	3.666531	$MET1
+ $X=55.66 $Y=103.6495
Rf373	OUT#7	OUT#8	2.609281	$MET1	$X=56.7 $Y=104.5695
Rf374	C#74	C#75	0.804227	$MET1	$X=55.7405 $Y=100.395
Rf375	C#75	C#76	0.001604	$MET1	$X=53.56 $Y=100.095
Rf376	C#76	C#77	0.796327	$MET1	$X=51.14 $Y=100.395
Rf377	GNDA#89	GNDA#11	0.228473	$MET1
+ $X=57.4855 $Y=68.13
Rf378	GNDA#11	GNDA#91	0.228594	$MET1
+ $X=56.355 $Y=68.13
Rf379	GNDA#11	GNDA#92	3.419437	$MET1
+ $X=56.92 $Y=70.435
Rf380	GNDA#93	GNDA#13	0.228473	$MET1
+ $X=57.4855 $Y=51.91
Rf381	GNDA#13	GNDA#95	0.228594	$MET1
+ $X=56.355 $Y=51.91
Rf382	GNDA#13	GNDA#96	3.419437	$MET1
+ $X=56.92 $Y=54.215
Rf383	GNDA#97	GNDA#15	0.228473	$MET1
+ $X=57.4855 $Y=35.69
Rf384	GNDA#15	GNDA#99	0.228594	$MET1
+ $X=56.355 $Y=35.69
Rf385	GNDA#15	GNDA#100	3.419437	$MET1
+ $X=56.92 $Y=37.995
Rf386	GNDA#101	GNDA#18	0.228473	$MET1
+ $X=57.4855 $Y=19.47
Rf387	GNDA#18	GNDA#103	0.228594	$MET1
+ $X=56.355 $Y=19.47
Rf388	GNDA#18	GNDA#104	3.419437	$MET1
+ $X=56.92 $Y=21.775
Rf389	VDDA#101	VDDA#102	2.166531	$MET1
+ $X=57.74 $Y=103.6495
Rf390	GNDA#106	GNDA#10	0.473792	$MET1
+ $X=58.19 $Y=75.1345
Rf391	GNDA#10	GNDA#109	0.473792	$MET1
+ $X=55.65 $Y=75.1355
Rf392	GNDA#109	GNDA#110	2.608531	$MET1
+ $X=55.65 $Y=73.7305
Rf393	GNDA#106	GNDA#111	2.608531	$MET1
+ $X=58.19 $Y=73.7305
Rf394	GNDA#105	GNDA#106	3.750000	$MET1
+ $X=58.19 $Y=74.49
Rf395	GNDA#108	GNDA#109	3.750000	$MET1
+ $X=55.65 $Y=74.49
Rf396	GNDA#112	GNDA#113	3.709742	$MET1
+ $X=58.19 $Y=67.085
Rf397	GNDA#113	GNDA#114	3.519898	$MET1
+ $X=58.19 $Y=57.5105
Rf398	GNDA#112	GNDA#113	0.416667	$MET1
+ $X=58.19 $Y=62.0575
Rf399	GNDA#115	GNDA#116	3.709742	$MET1
+ $X=58.19 $Y=50.865
Rf400	GNDA#116	GNDA#117	3.519898	$MET1
+ $X=58.19 $Y=41.2905
Rf401	GNDA#115	GNDA#116	0.416667	$MET1
+ $X=58.19 $Y=45.8375
Rf402	GNDA#118	GNDA#119	3.709742	$MET1
+ $X=58.19 $Y=34.645
Rf403	GNDA#119	GNDA#120	3.519898	$MET1
+ $X=58.19 $Y=25.0705
Rf404	GNDA#118	GNDA#119	0.416667	$MET1
+ $X=58.19 $Y=29.6175
Rf405	GNDA#121	GNDA#122	6.358531	$MET1
+ $X=58.19 $Y=17.8505
Rf406	GNDA#123	GNDA#124	3.709742	$MET1
+ $X=58.89 $Y=67.085
Rf407	GNDA#124	GNDA#125	3.519898	$MET1
+ $X=58.89 $Y=57.5105
Rf408	GNDA#123	GNDA#124	0.416667	$MET1
+ $X=58.89 $Y=62.0575
Rf409	GNDA#126	GNDA#127	3.709742	$MET1
+ $X=58.89 $Y=50.865
Rf410	GNDA#127	GNDA#128	3.519898	$MET1
+ $X=58.89 $Y=41.2905
Rf411	GNDA#126	GNDA#127	0.416667	$MET1
+ $X=58.89 $Y=45.8375
Rf412	GNDA#129	GNDA#130	3.709742	$MET1
+ $X=58.89 $Y=34.645
Rf413	GNDA#130	GNDA#131	3.519898	$MET1
+ $X=58.89 $Y=25.0705
Rf414	GNDA#129	GNDA#130	0.416667	$MET1
+ $X=58.89 $Y=29.6175
Rf415	GNDA#132	GNDA#133	6.358531	$MET1
+ $X=58.89 $Y=17.8505
Rf416	VDDA#104	VDDA#105	1.215758	$MET1
+ $X=59.59 $Y=108.0675
Rf417	VDDA#105	VDDA#106	1.297331	$MET1
+ $X=59.59 $Y=100.913
Rf418	VDDA#106	VDDA#107	1.385398	$MET1
+ $X=56.8205 $Y=98.975
Rf419	VDDA#107	VDDA#108	2.076956	$MET1
+ $X=47.57 $Y=100.9155
Rf420	VDDA#108	VDDA#109	1.093763	$MET1
+ $X=47.57 $Y=105.323
Rf421	VDDA#109	VDDA#110	0.044894	$MET1
+ $X=47.57 $Y=108.07
Rf422	VDDA#110	VDDA#112	0.045305	$MET1
+ $X=46.475 $Y=108.605
Rf423	VDDA#112	VDDA#113	1.040859	$MET1
+ $X=45.37 $Y=105.455
Rf424	VDDA#113	VDDA#114	2.174047	$MET1
+ $X=45.37 $Y=100.888
Rf425	VDDA#114	VDDA#115	2.165625	$MET1
+ $X=45.37 $Y=89.7455
Rf426	VDDA#115	VDDA#116	2.165625	$MET1
+ $X=45.37 $Y=78.6205
Rf427	VDDA#116	VDDA#117	1.895285	$MET1
+ $X=45.37 $Y=74.038
Rf428	VDDA#117	VDDA#118	1.883492	$MET1
+ $X=38.048 $Y=71.995
Rf429	VDDA#118	VDDA#119	2.065766	$MET1
+ $X=29.463 $Y=71.995
Rf430	VDDA#119	VDDA#120	2.118102	$MET1
+ $X=20.878 $Y=71.995
Rf431	VDDA#120	VDDA#121	2.167430	$MET1
+ $X=11.8605 $Y=71.995
Rf432	VDDA#121	VDDA#122	2.136511	$MET1
+ $X=2.61 $Y=74.0595
Rf433	VDDA#122	VDDA#123	2.175250	$MET1
+ $X=2.61 $Y=78.6795
Rf434	VDDA#123	VDDA#124	2.165625	$MET1
+ $X=2.61 $Y=89.8245
Rf435	VDDA#124	VDDA#125	2.165625	$MET1
+ $X=2.61 $Y=98.8245
Rf436	VDDA#125	VDDA#126	1.203125	$MET1
+ $X=2.61 $Y=107.9495
Rf437	VDDA#109	VDDA#127	1.009086	$MET1
+ $X=50.185 $Y=108.575
Rf438	VDDA#127	VDDA#128	1.383594	$MET1
+ $X=54.627 $Y=108.575
Rf439	VDDA#128	VDDA#129	0.397712	$MET1
+ $X=59.3295 $Y=108.575
Rf440	VDDA#126	VDDA#130	1.091234	$MET1
+ $X=2.8625 $Y=108.575
Rf441	VDDA#130	VDDA#131	2.121109	$MET1
+ $X=11.447 $Y=108.575
Rf442	VDDA#131	VDDA#132	2.176453	$MET1
+ $X=20.4895 $Y=108.575
Rf443	VDDA#132	VDDA#133	2.181867	$MET1
+ $X=29.542 $Y=108.575
Rf444	VDDA#133	VDDA#134	1.873867	$MET1
+ $X=40.1195 $Y=108.575
Rf445	VDDA#134	VDDA#135	0.700346	$MET1
+ $X=43.362 $Y=108.575
Rf446	VDDA#129	VDDA#104	0.059873	$MET1
+ $X=59.595 $Y=108.326
Rf447	VDDA#135	VDDA#112	0.020126	$MET1
+ $X=44.9475 $Y=108.61
Rf448	VDDA#103	VDDA#104	2.500000	$MET1
+ $X=59.59 $Y=108.0675
Rf449	VDDA#103	VDDA#105	0.441176	$MET1
+ $X=59.59 $Y=103.015
Rf450	VDDA#103	VDDA#106	1.500000	$MET1
+ $X=58.0775 $Y=98.975
Rf451	VDDA#103	VDDA#107	0.416667	$MET1
+ $X=52.32 $Y=98.975
Rf452	VDDA#103	VDDA#108	0.441176	$MET1
+ $X=47.57 $Y=103.0175
Rf453	VDDA#103	VDDA#109	2.500000	$MET1
+ $X=47.57 $Y=108.07
Rf454	VDDA#111	VDDA#112	3.750000	$MET1
+ $X=45.37 $Y=108.3225
Rf455	VDDA#111	VDDA#113	0.416667	$MET1
+ $X=45.37 $Y=103.28
Rf456	VDDA#111	VDDA#114	0.416667	$MET1
+ $X=45.37 $Y=94.245
Rf457	VDDA#111	VDDA#115	0.416667	$MET1
+ $X=45.37 $Y=85.245
Rf458	VDDA#111	VDDA#116	0.416667	$MET1
+ $X=45.37 $Y=76.245
Rf459	VDDA#111	VDDA#117	0.535714	$MET1
+ $X=41.5825 $Y=71.995
Rf460	VDDA#111	VDDA#118	0.441176	$MET1
+ $X=33.755 $Y=71.995
Rf461	VDDA#111	VDDA#119	0.441176	$MET1
+ $X=25.17 $Y=71.995
Rf462	VDDA#111	VDDA#120	0.416667	$MET1
+ $X=16.3675 $Y=71.995
Rf463	VDDA#111	VDDA#121	0.416667	$MET1
+ $X=7.36 $Y=71.995
Rf464	VDDA#111	VDDA#122	0.416667	$MET1
+ $X=2.61 $Y=76.285
Rf465	VDDA#111	VDDA#123	0.416667	$MET1
+ $X=2.61 $Y=85.325
Rf466	VDDA#111	VDDA#124	0.416667	$MET1
+ $X=2.61 $Y=94.325
Rf467	VDDA#111	VDDA#125	0.416667	$MET1
+ $X=2.61 $Y=103.325
Rf468	VDDA#111	VDDA#126	3.750000	$MET1
+ $X=2.61 $Y=108.325
Rf469	VDDA#103	VDDA#127	0.441176	$MET1
+ $X=52.275 $Y=108.575
Rf470	VDDA#103	VDDA#128	1.500000	$MET1
+ $X=58.025 $Y=108.575
Rf471	VDDA#111	VDDA#130	0.441176	$MET1
+ $X=7.155 $Y=108.575
Rf472	VDDA#111	VDDA#131	0.416667	$MET1
+ $X=15.97 $Y=108.575
Rf473	VDDA#111	VDDA#132	0.416667	$MET1
+ $X=25.015 $Y=108.575
Rf474	VDDA#111	VDDA#133	0.416667	$MET1
+ $X=34.0825 $Y=108.575
Rf475	VDDA#111	VDDA#134	0.576923	$MET1
+ $X=41.87 $Y=108.575
Rf476	A#83	A	0.228473	$MET1	$X=60.7255 $Y=68.13
Rf477	A	A#85	0.228594	$MET1	$X=59.595 $Y=68.13
Rf478	A	A#86	2.452125	$MET1	$X=60.16 $Y=68.425
Rf479	A#87	A#3	0.228473	$MET1	$X=60.7255 $Y=51.91
Rf480	A#3	A#89	0.228594	$MET1	$X=59.595 $Y=51.91
Rf481	A#3	A#90	2.452125	$MET1	$X=60.16 $Y=52.205
Rf482	A#91	A#5	0.228473	$MET1	$X=60.7255 $Y=35.69
Rf483	A#5	A#93	0.228594	$MET1	$X=59.595 $Y=35.69
Rf484	A#5	A#94	2.452125	$MET1	$X=60.16 $Y=35.985
Rf485	GNDA#134	GNDA#22	0.228473	$MET1
+ $X=60.7255 $Y=19.47
Rf486	GNDA#22	GNDA#136	0.228594	$MET1
+ $X=59.595 $Y=19.47
Rf487	GNDA#22	GNDA#137	3.419437	$MET1
+ $X=60.16 $Y=21.775
Rf488	GNDA#139	GNDA#20	0.473792	$MET1
[...]
C4562	C#16	GNDA	1.23835e-17	$X=52.0195 $Y=102.3885
C4563	C#17	GNDA	1.27036e-17	$X=50.9795 $Y=102.3885
C4564	C#11	GNDA	8.05123e-18	$X=49.9395 $Y=102.2535
C4565	VDDA#6	GNDA	5.36155e-18	$X=38.569 $Y=97.736
C4566	D#20	GNDA	4.89583e-18	$X=25.609 $Y=82.832
C4567	VDDA#2	GNDA	5.36155e-18	$X=9.409 $Y=97.736
C4568	VDDA#4	GNDA	5.02501e-18	$X=9.409 $Y=82.832
C4569	A#12	GNDA	3.54875e-18	$X=63.399 $Y=29.007
C4570	A#6	GNDA	3.54875e-18	$X=60.159 $Y=29.007
C4571	BIAS#16	GNDA	6.79629e-19	$X=43.0895 $Y=21.542
C4572	BIAS#19	GNDA	6.79629e-19	$X=42.2995 $Y=21.6755
C4573	BIAS#34	GNDA	6.79629e-19	$X=41.509 $Y=21.6755
C4574	BIAS#35	GNDA	6.79629e-19	$X=40.7195 $Y=21.6755
C4575	BIAS#36	GNDA	6.79629e-19	$X=39.9295 $Y=21.6755
C4576	BIAS#37	GNDA	6.79629e-19	$X=39.1395 $Y=21.6755
C4577	BIAS#38	GNDA	6.79629e-19	$X=38.3495 $Y=21.6755
C4578	BIAS#39	GNDA	6.79629e-19	$X=37.559 $Y=21.6755
C4579	BIAS#40	GNDA	6.79629e-19	$X=36.7695 $Y=21.6755
C4580	BIAS#41	GNDA	6.79629e-19	$X=35.9795 $Y=21.6755
C4581	INN#20	GNDA	1.76271e-18	$X=34.9795 $Y=57.901
C4582	BIAS#42	GNDA	6.79629e-19	$X=35.1895 $Y=21.6755
C4583	BIAS#43	GNDA	6.79629e-19	$X=34.3995 $Y=21.6755
C4584	BIAS#44	GNDA	6.79629e-19	$X=33.6095 $Y=21.6755
C4585	INP#18	GNDA	4.67901e-18	$X=32.7395 $Y=57.901
C4586	BIAS#45	GNDA	6.79629e-19	$X=32.8195 $Y=21.6755
C4587	BIAS#46	GNDA	6.79629e-19	$X=32.0295 $Y=21.6755
C4588	BIAS#33	GNDA	6.79629e-19	$X=31.2395 $Y=21.541
C4589	INN#16	GNDA	1.76122e-18	$X=30.4995 $Y=57.901
C4590	INP#14	GNDA	4.67901e-18	$X=28.2595 $Y=57.901
C4591	INN#12	GNDA	1.76122e-18	$X=26.0195 $Y=57.901
C4592	INP#10	GNDA	4.67901e-18	$X=23.779 $Y=57.901
C4593	INN#8	GNDA	1.76122e-18	$X=21.5395 $Y=57.901
C4594	INP#6	GNDA	1.76122e-18	$X=19.2995 $Y=57.901
C4595	INN#4	GNDA	1.76122e-18	$X=17.0595 $Y=57.901
C4596	INP#2	GNDA	1.76122e-18	$X=14.8195 $Y=57.901
C4597	net6#10	GNDA	2.92653e-19	$X=73.9495 $Y=95.4945
C4598	OUT#104	GNDA	7.61389e-17	$X=90.384 $Y=69.2135
C4599	OUT#138	GNDA	2.84325e-18	$X=90.384 $Y=15.2165
C4600	net6#5	GNDA	7.52971e-19	$X=70.8395 $Y=95.4545
C4601	OUT#101	GNDA	5.01974e-17	$X=59.746 $Y=99.935
C4602	net5#41	GNDA	7.64225e-17	$X=64.654 $Y=69.7565
C4603	net5#44	GNDA	9.14745e-18	$X=54.839 $Y=55.439
C4604	net5#45	GNDA	4.68196e-17	$X=64.654 $Y=40.034
C4605	net5#48	GNDA	1.06462e-17	$X=54.839 $Y=22.8465
C4606	net5#49	GNDA	1.03262e-17	$X=64.654 $Y=16.5565
C4607	A#264	GNDA	2.41919e-20	$X=51.505 $Y=52.759
C4608	A#279	GNDA	9.85887e-20	$X=51.505 $Y=36.539
C4609	A#280	GNDA	1.80247e-17	$X=63.734 $Y=21.8295
C4610	D#157	GNDA	1.29388e-17	$X=42.681 $Y=103.1475
C4611	D#162	GNDA	4.32154e-18	$X=42.5215 $Y=90.039
C4612	D#171	GNDA	1.95877e-17	$X=42.2305 $Y=75.086
C4613	D#143	GNDA	2.47077e-19	$X=42.4165 $Y=63.686
C4614	D#150	GNDA	1.4824e-20	$X=42.1365 $Y=39.0715
C4615	VDDA#189	GNDA	3.92824e-18	$X=41.8095 $Y=99.959
C4616	VDDA#169	GNDA	3.23883e-18	$X=41.9355 $Y=80.609
C4617	C#78	GNDA	1.77106e-18	$X=40.9865 $Y=61.1265
C4618	C#85	GNDA	8.41767e-19	$X=41.2665 $Y=37.2315
C4619	B#77	GNDA	1.1636e-17	$X=39.924 $Y=59.9765
C4620	B#90	GNDA	6.70772e-18	$X=40.1205 $Y=40.2215
C4621	A#234	GNDA	5.06231e-17	$X=23.4735 $Y=24.917
C4622	B#88	GNDA	9.50006e-18	$X=9.6815 $Y=59.9765
C4623	B#101	GNDA	8.96971e-18	$X=9.6815 $Y=40.2215
C4624	D#149	GNDA	8.41767e-19	$X=9.004 $Y=62.9665
C4625	D#156	GNDA	1.2451e-18	$X=8.724 $Y=39.0715
C4626	C#84	GNDA	7.06282e-18	$X=7.074 $Y=66.934
C4627	C#91	GNDA	1.4824e-20	$X=7.854 $Y=37.2315
C4628	VDDA#202	GNDA	1.56421e-18	$X=5.9465 $Y=99.959
C4629	VDDA#182	GNDA	1.21636e-18	$X=6.0425 $Y=80.609
C4630	C#96	GNDA	6.67971e-18	$X=6.02 $Y=102.949
C4631	C#103	GNDA	1.05662e-18	$X=5.4565 $Y=78.404
C4632	OUT#92	GNDA	5.79119e-18	$X=97.309 $Y=56.9775
C4633	OUT#95	GNDA	5.79119e-18	$X=97.309 $Y=40.7575
C4634	OUT#98	GNDA	8.58566e-18	$X=97.309 $Y=24.5375
C4635	A#224	GNDA	2.79935e-18	$X=97.559 $Y=68.965
C4636	A#228	GNDA	2.79935e-18	$X=97.559 $Y=52.745
C4637	A#232	GNDA	2.79935e-18	$X=97.559 $Y=36.525
C4638	OUT#83	GNDA	3.86269e-18	$X=93.829 $Y=56.9775
C4639	OUT#86	GNDA	3.86269e-18	$X=93.829 $Y=40.7575
C4640	OUT#89	GNDA	6.65715e-18	$X=93.829 $Y=24.5375
C4641	A#212	GNDA	2.79935e-18	$X=92.5595 $Y=68.9655
C4642	A#216	GNDA	2.79935e-18	$X=92.5595 $Y=52.7455
C4643	A#220	GNDA	2.79935e-18	$X=92.5595 $Y=36.5255
C4644	OUT#74	GNDA	3.86269e-18	$X=90.5895 $Y=56.9775
C4645	OUT#77	GNDA	3.86269e-18	$X=90.5895 $Y=40.7575
C4646	OUT#80	GNDA	6.65715e-18	$X=90.5895 $Y=24.5375
C4647	A#200	GNDA	2.79935e-18	$X=89.3195 $Y=68.9655
C4648	A#204	GNDA	2.79935e-18	$X=89.3195 $Y=52.7455
C4649	A#208	GNDA	2.79935e-18	$X=89.3195 $Y=36.5255
C4650	OUT#65	GNDA	3.86269e-18	$X=87.349 $Y=56.9775
C4651	OUT#68	GNDA	3.86269e-18	$X=87.349 $Y=40.7575
C4652	OUT#71	GNDA	6.65715e-18	$X=87.349 $Y=24.5375
C4653	A#188	GNDA	2.79935e-18	$X=86.0795 $Y=68.9655
C4654	A#192	GNDA	2.79935e-18	$X=86.0795 $Y=52.7455
C4655	A#196	GNDA	2.79935e-18	$X=86.0795 $Y=36.5255
C4656	OUT#56	GNDA	7.72537e-18	$X=83.569 $Y=56.9775
C4657	OUT#59	GNDA	5.7874e-18	$X=83.569 $Y=40.7575
C4658	OUT#62	GNDA	1.61088e-17	$X=83.569 $Y=24.5375
C4659	A#176	GNDA	2.79935e-18	$X=82.8395 $Y=68.9655
C4660	A#180	GNDA	2.79935e-18	$X=82.8395 $Y=52.7455
C4661	A#184	GNDA	2.79935e-18	$X=82.9985 $Y=36.5255
C4662	net5#27	GNDA	2.08706e-17	$X=84.5305 $Y=57.8705
C4663	net5#30	GNDA	3.54875e-18	$X=84.5305 $Y=25.4305
C4664	A#161	GNDA	2.79935e-18	$X=79.5995 $Y=68.9655
C4665	A#169	GNDA	2.79935e-18	$X=79.512 $Y=36.5255
C4666	net5#21	GNDA	1.17232e-17	$X=75.8275 $Y=57.8705
C4667	A#146	GNDA	2.79935e-18	$X=76.3595 $Y=68.9655
C4668	A#154	GNDA	2.79935e-18	$X=76.1135 $Y=36.5255
C4669	OUT#47	GNDA	3.857e-18	$X=74.9295 $Y=56.9775
C4670	OUT#50	GNDA	3.85321e-18	$X=74.9295 $Y=40.7575
C4671	OUT#53	GNDA	1.24107e-17	$X=74.9295 $Y=24.5375
C4672	A#134	GNDA	2.79935e-18	$X=73.1195 $Y=68.9655
C4673	A#138	GNDA	2.79935e-18	$X=73.1195 $Y=52.7455
C4674	A#142	GNDA	2.79935e-18	$X=73.1195 $Y=36.5255
C4675	net6#4	GNDA	2.71912e-18	$X=70.8395 $Y=95.4545
C4676	OUT#38	GNDA	1.9285e-18	$X=71.149 $Y=56.977
C4677	OUT#41	GNDA	1.9285e-18	$X=71.149 $Y=40.757
C4678	OUT#44	GNDA	6.65715e-18	$X=71.149 $Y=24.5375
C4679	A#122	GNDA	2.79935e-18	$X=69.8795 $Y=68.9655
C4680	A#126	GNDA	2.79935e-18	$X=69.8795 $Y=52.7455
C4681	A#130	GNDA	2.79935e-18	$X=69.8795 $Y=36.5255
C4682	OUT#29	GNDA	1.9285e-18	$X=67.909 $Y=56.9775
C4683	OUT#32	GNDA	1.9285e-18	$X=67.909 $Y=40.7575
C4684	OUT#35	GNDA	6.65715e-18	$X=67.909 $Y=24.5375
C4685	A#110	GNDA	2.79935e-18	$X=66.6395 $Y=68.9655
C4686	A#114	GNDA	2.79935e-18	$X=66.6395 $Y=52.7455
C4687	A#118	GNDA	2.79935e-18	$X=66.6395 $Y=36.5255
C4688	OUT#20	GNDA	1.9285e-18	$X=64.669 $Y=56.9775
C4689	OUT#23	GNDA	1.9285e-18	$X=64.669 $Y=40.7575
C4690	OUT#26	GNDA	6.65715e-18	$X=64.669 $Y=24.5375
C4691	A#98	GNDA	2.79935e-18	$X=63.3995 $Y=68.9655
C4692	A#102	GNDA	2.79935e-18	$X=63.3995 $Y=52.7455
C4693	A#106	GNDA	2.79935e-18	$X=63.3995 $Y=36.5255
C4694	VDDA#149	GNDA	7.60369e-18	$X=61.5075 $Y=107.5425
C4695	OUT#11	GNDA	9.11046e-18	$X=59.737 $Y=56.977
C4696	OUT#14	GNDA	9.11046e-18	$X=59.737 $Y=40.757
C4697	OUT#17	GNDA	2.08374e-17	$X=59.737 $Y=24.5375
C4698	A#86	GNDA	3.22944e-18	$X=59.411 $Y=68.9655
C4699	A#90	GNDA	3.22944e-18	$X=59.411 $Y=52.7455
C4700	A#94	GNDA	3.22944e-18	$X=59.411 $Y=36.5255
C4701	OUT#8	GNDA	8.22488e-18	$X=56.8595 $Y=106.2905
C4702	OUT#4	GNDA	9.18885e-19	$X=52.339 $Y=106.2905
C4703	C#72	GNDA	1.75239e-19	$X=50.499 $Y=95.624
C4704	OUT#2	GNDA	1.83777e-18	$X=50.2995 $Y=106.2905
C4705	VDDA#94	GNDA	2.75499e-18	$X=49.512 $Y=104.6805
C4706	VDDA#110	GNDA	7.49474e-18	$X=46.4815 $Y=108.328
C4707	B#76	GNDA	1.35926e-18	$X=44.104 $Y=27.888
C4708	B#74	GNDA	1.35926e-18	$X=41.1145 $Y=26.4455
C4709	VDDA#83	GNDA	3.39e-18	$X=39.6735 $Y=102.8405
C4710	VDDA#92	GNDA	3.39596e-18	$X=39.6735 $Y=77.728
C4711	B#72	GNDA	1.35926e-18	$X=39.534 $Y=26.4455
C4712	B#70	GNDA	1.35926e-18	$X=37.9545 $Y=26.4455
C4713	VDDA#82	GNDA	3.39596e-18	$X=37.212 $Y=102.8405
C4714	VDDA#90	GNDA	3.39596e-18	$X=37.212 $Y=77.728
C4715	D#142	GNDA	5.36155e-18	$X=36.5755 $Y=104.45
C4716	C#71	GNDA	3.27563e-19	$X=39.487 $Y=78.5705
C4717	B#68	GNDA	1.35926e-18	$X=36.3745 $Y=26.4455
C4718	D#132	GNDA	1.04638e-17	$X=36.059 $Y=66.155
C4719	C#68	GNDA	1.417e-17	$X=35.802 $Y=36.862
C4720	D#135	GNDA	5.96218e-18	$X=35.8695 $Y=90.2695
C4721	INP#39	GNDA	1.02579e-17	$X=37.162 $Y=50.3295
C4722	B#66	GNDA	1.35926e-18	$X=34.7945 $Y=26.4455
C4723	INN#40	GNDA	1.07886e-17	$X=36.737 $Y=49.8695
C4724	B#61	GNDA	6.31375e-18	$X=34.532 $Y=62.9355
C4725	B#64	GNDA	5.87545e-18	$X=34.424 $Y=39.3155
C4726	VDDA#71	GNDA	7.17304e-18	$X=34.0595 $Y=102.8405
C4727	C#65	GNDA	8.0651e-18	$X=33.869 $Y=64.545
C4728	D#129	GNDA	1.13589e-17	$X=33.902 $Y=38.089
C4729	C#62	GNDA	1.14215e-17	$X=35.2495 $Y=106.06
C4730	D#126	GNDA	3.39596e-18	$X=33.613 $Y=77.3445
C4731	B#58	GNDA	1.35926e-18	$X=33.2145 $Y=26.4455
C4732	INN#37	GNDA	3.28259e-18	$X=32.6545 $Y=49.682
C4733	net5#4	GNDA	2.25154e-19	$X=32.4245 $Y=24.8355
C4734	B#53	GNDA	3.39596e-18	$X=31.9695 $Y=62.9355
C4735	B#50	GNDA	1.35926e-18	$X=31.517 $Y=26.4455
C4736	D#116	GNDA	6.79192e-18	$X=31.2695 $Y=66.1555
C4737	VDDA#65	GNDA	4.62579e-18	$X=30.8195 $Y=102.8405
C4738	INN#36	GNDA	7.38216e-18	$X=30.2445 $Y=49.8695
C4739	C#56	GNDA	3.51452e-18	$X=29.849 $Y=78.5705
C4740	B#45	GNDA	6.31375e-18	$X=29.7295 $Y=62.9355
C4741	C#53	GNDA	3.68322e-18	$X=29.0295 $Y=64.5455
C4742	D#103	GNDA	5.57833e-18	$X=29.029 $Y=38.089
C4743	INN#33	GNDA	3.3774e-18	$X=28.1745 $Y=49.682
C4744	VDDA#59	GNDA	7.17304e-18	$X=27.5795 $Y=102.8405
C4745	B#39	GNDA	3.39596e-18	$X=27.4895 $Y=62.9355
C4746	C#50	GNDA	1.23955e-18	$X=27.284 $Y=106.06
C4747	D#97	GNDA	6.79192e-18	$X=26.7895 $Y=66.1555
C4748	INN#32	GNDA	1.57081e-18	$X=25.7645 $Y=49.8695
C4749	B#33	GNDA	6.31375e-18	$X=25.2495 $Y=62.9355
C4750	C#44	GNDA	3.68322e-18	$X=24.5495 $Y=64.5455
C4751	D#87	GNDA	5.57833e-18	$X=24.549 $Y=38.089
C4752	VDDA#53	GNDA	1.22983e-18	$X=24.3395 $Y=102.8405
C4753	INN#29	GNDA	3.3774e-18	$X=23.6945 $Y=49.682
C4754	C#41	GNDA	4.62579e-18	$X=23.234 $Y=106.06
C4755	B#27	GNDA	3.39596e-18	$X=23.0095 $Y=62.9355
C4756	D#74	GNDA	6.79192e-18	$X=22.3095 $Y=66.1555
C4757	INN#28	GNDA	1.57081e-18	$X=21.2845 $Y=49.8695
C4758	VDDA#47	GNDA	4.62579e-18	$X=21.0995 $Y=102.8405
C4759	B#21	GNDA	3.39596e-18	$X=20.7695 $Y=62.9355
C4760	C#35	GNDA	1.3813e-18	$X=20.669 $Y=78.5705
C4761	C#32	GNDA	3.68322e-18	$X=20.0695 $Y=64.5455
C4762	INN#25	GNDA	3.3774e-18	$X=19.2145 $Y=49.682
C4763	B#15	GNDA	3.39596e-18	$X=18.5295 $Y=62.9355
C4764	VDDA#41	GNDA	7.17304e-18	$X=17.8595 $Y=102.8405
C4765	D#58	GNDA	1.01879e-17	$X=17.277 $Y=66.155
C4766	C#29	GNDA	3.39596e-18	$X=17.307 $Y=36.862
C4767	C#26	GNDA	8.03147e-18	$X=16.4605 $Y=106.06
C4768	D#55	GNDA	1.01879e-17	$X=15.4755 $Y=77.344
C4769	INN#24	GNDA	2.60622e-18	$X=16.8045 $Y=49.8695
C4770	B#9	GNDA	3.39596e-18	$X=16.2895 $Y=62.9355
C4771	C#23	GNDA	8.79282e-18	$X=15.0865 $Y=64.545
C4772	D#45	GNDA	8.24814e-18	$X=15.407 $Y=38.089
C4773	INP#21	GNDA	2.92607e-18	$X=14.018 $Y=50.5165
C4774	INN#21	GNDA	6.20866e-18	$X=13.933 $Y=49.682
C4775	VDDA#35	GNDA	4.62579e-18	$X=14.6195 $Y=102.8405
C4776	B#3	GNDA	3.39596e-18	$X=13.9195 $Y=62.9355
C4777	B#6	GNDA	3.39596e-18	$X=13.962 $Y=39.3155
C4778	D#42	GNDA	5.36155e-18	$X=12.204 $Y=104.45
C4779	C#20	GNDA	4.32438e-18	$X=13.617 $Y=78.5705
C4780	D#35	GNDA	1.14532e-17	$X=10.847 $Y=90.2695
C4781	VDDA#29	GNDA	1.0569e-17	$X=11.3795 $Y=102.747
C4782	VDDA#32	GNDA	3.39596e-18	$X=11.3795 $Y=80.879
C4783	VDDA#17	GNDA	3.32758e-18	$X=10.942 $Y=102.8405
C4784	VDDA#26	GNDA	3.39596e-18	$X=10.942 $Y=77.728
C4785	VDDA#16	GNDA	3.32758e-18	$X=8.306 $Y=102.8405
C4786	VDDA#24	GNDA	3.39596e-18	$X=8.306 $Y=77.728
C4787	A#67	GNDA	5.00945e-18	$X=95.7995 $Y=67.517
C4788	A#69	GNDA	5.00945e-18	$X=95.7995 $Y=51.297
C4789	A#71	GNDA	5.00945e-18	$X=95.7995 $Y=35.077
C4790	A#3	GNDA	5.12231e-18	$X=60.159 $Y=51.297
C4791	A#5	GNDA	5.12231e-18	$X=60.159 $Y=35.077
C4792	D#29	GNDA	3.76138e-19	$X=35.3295 $Y=91.645
C4793	D#31	GNDA	3.15055e-19	$X=35.3295 $Y=88.9185
C4794	INN#19	GNDA	2.90088e-18	$X=34.8095 $Y=51.7225
C4795	INP#19	GNDA	1.04843e-17	$X=35.1495 $Y=48.476
C4796	INP#17	GNDA	1.17738e-18	$X=32.7395 $Y=51.815
C4797	INN#17	GNDA	1.1047e-18	$X=32.7395 $Y=48.3835
C4798	INP#15	GNDA	8.95573e-18	$X=30.6695 $Y=48.476
C4799	INP#11	GNDA	8.95573e-18	$X=26.1895 $Y=48.476
C4800	INP#7	GNDA	8.95573e-18	$X=21.709 $Y=48.476
C4801	INN#3	GNDA	1.70423e-18	$X=16.8895 $Y=51.7225
C4802	INP#3	GNDA	4.41202e-18	$X=17.2295 $Y=48.476
C4803	INP#1	GNDA	2.15215e-18	$X=14.8195 $Y=51.815
C4804	INN#1	GNDA	9.39529e-18	$X=14.8195 $Y=48.3835
C4805	D#3	GNDA	3.15055e-19	$X=12.6495 $Y=88.9185
C4806	net6#11	GNDA	1.3872e-19	$X=92.488 $Y=94.057
C4807	VDDA#101	GNDA	6.05237e-18	$X=57.7245 $Y=102.113
C4808	OUT#7	GNDA	7.24975e-18	$X=56.6995 $Y=102.343
C4809	VDDA#99	GNDA	1.41536e-17	$X=55.6595 $Y=102.113
C4810	OUT#5	GNDA	1.44995e-17	$X=54.6195 $Y=102.343
C4811	VDDA#97	GNDA	1.45148e-17	$X=53.5795 $Y=102.113
C4812	OUT#3	GNDA	1.44995e-17	$X=52.5395 $Y=102.343
C4813	VDDA#95	GNDA	1.41575e-17	$X=51.499 $Y=102.113
C4814	OUT#1	GNDA	7.24975e-18	$X=50.4595 $Y=102.343
C4815	VDDA#93	GNDA	6.05237e-18	$X=49.4345 $Y=102.113
C4816	VDDA#136	GNDA	1.04941e-18	$X=59.001 $Y=89.924
C4817	B#75	GNDA	5.45218e-18	$X=42.6945 $Y=21.308
C4818	net5#15	GNDA	7.02434e-18	$X=41.9045 $Y=21.078
C4819	B#73	GNDA	8.25517e-18	$X=41.1145 $Y=21.308
C4820	net5#13	GNDA	7.02434e-18	$X=40.3245 $Y=21.078
C4821	B#71	GNDA	5.43898e-18	$X=39.534 $Y=21.308
C4822	net5#11	GNDA	9.84053e-18	$X=38.7445 $Y=21.078
C4823	B#69	GNDA	5.43898e-18	$X=37.9545 $Y=21.308
C4824	net5#9	GNDA	7.02434e-18	$X=37.1645 $Y=21.078
C4825	B#67	GNDA	5.43898e-18	$X=36.3745 $Y=21.308
C4826	D#130	GNDA	5.8981e-18	$X=35.7395 $Y=58.148
C4827	C#66	GNDA	5.85215e-19	$X=35.7195 $Y=43.6195
C4828	net5#7	GNDA	4.20815e-18	$X=35.5845 $Y=21.078
C4829	B#65	GNDA	5.43898e-18	$X=34.7945 $Y=21.308
C4830	B#59	GNDA	1.38583e-17	$X=34.2195 $Y=57.841
C4831	B#62	GNDA	9.856e-19	$X=34.2395 $Y=43.6195
C4832	net5#5	GNDA	4.20815e-18	$X=34.0045 $Y=21.078
C4833	net5#3	GNDA	4.16521e-18	$X=32.4245 $Y=21.078
C4834	B#51	GNDA	8.05805e-18	$X=31.979 $Y=57.841
C4835	D#114	GNDA	5.97213e-18	$X=31.259 $Y=58.148
C4836	C#57	GNDA	5.85215e-19	$X=31.2395 $Y=43.6195
C4837	B#43	GNDA	8.05805e-18	$X=29.739 $Y=57.841
C4838	B#46	GNDA	9.856e-19	$X=29.7595 $Y=43.6195
C4839	B#37	GNDA	8.05805e-18	$X=27.499 $Y=57.841
C4840	D#95	GNDA	1.6079e-19	$X=26.7795 $Y=58.148
C4841	C#45	GNDA	5.85215e-19	$X=26.7595 $Y=43.6195
C4842	B#34	GNDA	9.856e-19	$X=25.2795 $Y=43.6195
C4843	A#79	GNDA	4.12036e-18	$X=22.9395 $Y=21.078
C4844	D#72	GNDA	1.6079e-19	$X=22.299 $Y=58.148
C4845	C#36	GNDA	5.85215e-19	$X=22.279 $Y=43.6195
C4846	A#77	GNDA	9.79496e-18	$X=21.3595 $Y=21.078
C4847	B#22	GNDA	9.856e-19	$X=20.7995 $Y=43.6195
C4848	A#75	GNDA	7.02434e-18	$X=19.7795 $Y=21.078
C4849	BIAS#47	GNDA	1.27412e-18	$X=18.9895 $Y=21.308
C4850	D#56	GNDA	1.58652e-19	$X=17.8195 $Y=58.148
C4851	C#27	GNDA	5.85215e-19	$X=17.7995 $Y=43.6195
C4852	B#7	GNDA	7.84727e-18	$X=16.299 $Y=57.841
C4853	B#10	GNDA	9.856e-19	$X=16.3195 $Y=43.6195
C4854	C#21	GNDA	5.87545e-18	$X=15.579 $Y=57.9945
C4855	VDDA#75	GNDA	1.03515e-18	$X=39.8095 $Y=96.414
C4856	VDDA#84	GNDA	1.08696e-18	$X=39.8295 $Y=85.313
C4857	VDDA#79	GNDA	1.03515e-18	$X=37.309 $Y=97.652
C4858	VDDA#87	GNDA	1.08696e-18	$X=37.309 $Y=85.313
C4859	D#140	GNDA	7.17304e-18	$X=36.589 $Y=97.836
C4860	D#111	GNDA	7.17304e-18	$X=30.109 $Y=97.836
C4861	D#69	GNDA	7.17304e-18	$X=20.389 $Y=97.836
C4862	D#40	GNDA	7.17304e-18	$X=13.909 $Y=97.836
C4863	VDDA#9	GNDA	1.03515e-18	$X=10.6495 $Y=96.414
C4864	VDDA#18	GNDA	1.08696e-18	$X=10.6695 $Y=85.313
C4865	VDDA#13	GNDA	1.03515e-18	$X=8.149 $Y=97.652
C4866	VDDA#21	GNDA	1.08696e-18	$X=8.149 $Y=85.313
C4867	D#37	GNDA	9.013e-19	$X=11.8795 $Y=89.5145
C4868	D#38	GNDA	1.18808e-18	$X=11.8795 $Y=91.0545
C4869	D#133	GNDA	1.93181e-18	$X=36.1 $Y=91.0545
C4870	D#139	GNDA	1.46551e-18	$X=36.099 $Y=89.5145
C4871	BIAS#57	GNDA	1.35198e-19	$X=25.4285 $Y=18.1195
C4872	C#77	GNDA	3.17144e-18	$X=50.5645 $Y=100.3945
C4873	VDDA#135	GNDA	9.18581e-19	$X=46.469 $Y=108.4065
C4874	VDDA#129	GNDA	3.4848e-19	$X=59.589 $Y=104.8285
C4875	A#85	GNDA	8.51617e-18	$X=59.397 $Y=68.1295
C4876	A#83	GNDA	1.9285e-18	$X=60.9225 $Y=68.1295
C4877	A#89	GNDA	6.58198e-18	$X=59.397 $Y=51.9095
C4878	A#87	GNDA	1.9285e-18	$X=60.9225 $Y=51.9095
C4879	A#93	GNDA	6.58198e-18	$X=59.397 $Y=35.6895
C4880	A#91	GNDA	1.9285e-18	$X=60.9225 $Y=35.6895
C4881	A#97	GNDA	1.93418e-18	$X=62.637 $Y=68.1295
C4882	A#95	GNDA	1.9285e-18	$X=64.1625 $Y=68.1295
C4883	A#99	GNDA	1.9285e-18	$X=64.1625 $Y=51.9095
C4884	A#103	GNDA	1.9285e-18	$X=64.1625 $Y=35.6895
C4885	A#109	GNDA	1.93418e-18	$X=65.877 $Y=68.1295
C4886	A#107	GNDA	1.9285e-18	$X=67.4025 $Y=68.1295
C4887	A#111	GNDA	1.9285e-18	$X=67.4025 $Y=51.9095
C4888	A#115	GNDA	1.9285e-18	$X=67.4025 $Y=35.6895
C4889	A#121	GNDA	1.93418e-18	$X=69.117 $Y=68.1295
C4890	A#119	GNDA	1.9285e-18	$X=70.6425 $Y=68.1295
C4891	A#123	GNDA	1.9285e-18	$X=70.6425 $Y=51.9095
C4892	A#127	GNDA	1.9285e-18	$X=70.6425 $Y=35.6895
C4893	VDDA#137	GNDA	2.05724e-20	$X=73.2695 $Y=91.4125
C4894	A#133	GNDA	1.93418e-18	$X=72.357 $Y=68.1295
C4895	A#131	GNDA	1.9285e-18	$X=73.8825 $Y=68.1295
C4896	A#135	GNDA	1.9285e-18	$X=73.8825 $Y=51.9095
C4897	A#139	GNDA	1.9285e-18	$X=73.8825 $Y=35.6895
C4898	A#145	GNDA	1.93418e-18	$X=75.597 $Y=68.1295
C4899	A#143	GNDA	1.9285e-18	$X=77.1225 $Y=68.1295
C4900	A#147	GNDA	1.9285e-18	$X=77.1225 $Y=51.9095
C4901	A#151	GNDA	1.92471e-18	$X=77.1225 $Y=35.6895
C4902	A#160	GNDA	1.93418e-18	$X=78.837 $Y=68.1295
C4903	A#158	GNDA	1.9285e-18	$X=80.3625 $Y=68.1295
C4904	A#162	GNDA	1.9285e-18	$X=80.3625 $Y=51.9095
C4905	A#166	GNDA	1.92471e-18	$X=80.3625 $Y=35.6895
C4906	A#175	GNDA	1.93418e-18	$X=82.0765 $Y=68.1295
C4907	A#173	GNDA	1.9285e-18	$X=83.6025 $Y=68.1295
C4908	A#179	GNDA	1.93418e-18	$X=82.0765 $Y=51.9095
C4909	A#177	GNDA	1.9285e-18	$X=83.6025 $Y=51.9095
C4910	A#183	GNDA	1.93418e-18	$X=82.0765 $Y=35.6895
C4911	A#181	GNDA	1.9285e-18	$X=83.6025 $Y=35.6895
C4912	A#187	GNDA	1.93418e-18	$X=85.317 $Y=68.1295
C4913	A#185	GNDA	1.9285e-18	$X=86.8425 $Y=68.1295
C4914	A#191	GNDA	1.93418e-18	$X=85.317 $Y=51.9095
C4915	A#189	GNDA	1.9285e-18	$X=86.8425 $Y=51.9095
C4916	A#193	GNDA	1.9285e-18	$X=86.8425 $Y=35.6895
C4917	A#199	GNDA	1.93418e-18	$X=88.557 $Y=68.1295
C4918	A#197	GNDA	1.9285e-18	$X=90.0825 $Y=68.1295
C4919	A#203	GNDA	1.93418e-18	$X=88.557 $Y=51.9095
C4920	A#201	GNDA	1.9285e-18	$X=90.0825 $Y=51.9095
C4921	A#207	GNDA	1.93418e-18	$X=88.557 $Y=35.6895
C4922	A#205	GNDA	1.9285e-18	$X=90.0825 $Y=35.6895
C4923	A#211	GNDA	1.93418e-18	$X=91.797 $Y=68.1295
C4924	A#209	GNDA	1.9285e-18	$X=93.3225 $Y=68.1295
C4925	A#215	GNDA	1.93418e-18	$X=91.797 $Y=51.9095
C4926	A#213	GNDA	1.9285e-18	$X=93.3225 $Y=51.9095
C4927	A#219	GNDA	1.93418e-18	$X=91.797 $Y=35.6895
C4928	A#217	GNDA	1.9285e-18	$X=93.3225 $Y=35.6895
C4929	A#223	GNDA	1.93418e-18	$X=95.037 $Y=68.1295
C4930	A#221	GNDA	9.01075e-18	$X=96.5625 $Y=68.1295
C4931	A#227	GNDA	1.93418e-18	$X=95.037 $Y=51.9095
C4932	A#225	GNDA	9.01075e-18	$X=96.5625 $Y=51.9095
C4933	A#231	GNDA	1.93418e-18	$X=95.037 $Y=35.6895
C4934	A#229	GNDA	9.01075e-18	$X=96.5625 $Y=35.6895
C4935	BIAS#2	GNDA	3.86861e-18	$X=23.7295 $Y=18.1195
C4936	BIAS#3	GNDA	1.04407e-17	$X=22.5445 $Y=18.7805
C4937	BIAS#6	GNDA	8.76597e-18	$X=20.9645 $Y=18.7805
C4938	BIAS#7	GNDA	2.81619e-18	$X=20.1745 $Y=18.7805
C4939	BIAS#17	GNDA	3.86725e-18	$X=42.6945 $Y=18.1195
C4940	BIAS#20	GNDA	2.81619e-18	$X=40.7195 $Y=18.7805
C4941	BIAS#21	GNDA	2.84247e-18	$X=39.9295 $Y=18.7805
C4942	BIAS#22	GNDA	2.81619e-18	$X=39.1395 $Y=18.7805
C4943	BIAS#23	GNDA	2.81619e-18	$X=38.3495 $Y=18.7805
C4944	BIAS#24	GNDA	2.81619e-18	$X=37.559 $Y=18.7805
C4945	C#4	GNDA	1.86735e-18	$X=56.6995 $Y=100.3945
C4946	C#5	GNDA	3.03488e-18	$X=55.1395 $Y=100.743
C4947	C#6	GNDA	3.03488e-18	$X=54.0995 $Y=100.743
C4948	C#8	GNDA	3.03488e-18	$X=53.0595 $Y=100.743
C4949	C#9	GNDA	3.03488e-18	$X=52.0195 $Y=100.743
C4950	C#10	GNDA	1.51744e-18	$X=50.4595 $Y=100.3945
C4951	VDDA#183	GNDA	9.17238e-19	$X=105.8155 $Y=115.579
C4952	VDDA#210	GNDA	1.15335e-19	$X=25.019 $Y=115.579
C4953	VDDA#184	GNDA	5.76677e-20	$X=92.6065 $Y=115.3195
C4954	VDDA#188	GNDA	8.6455e-18	$X=46.4815 $Y=104.4275
C4955	A#286	GNDA	3.37112e-17	$X=41.9945 $Y=15.924
C4956	net6#77	GNDA	4.02019e-20	$X=84.6385 $Y=95.975
*
*
.ENDS opamp1
*
