
Spectre (R) Circuit Simulator
Version 24.1.0.288.isr5 64bit -- 3 Apr 2025
Copyright (C) 1989-2025 Cadence Design Systems, Inc. All rights reserved worldwide. Cadence and Spectre are registered trademarks of Cadence Design Systems, Inc. All others are the property of their respective holders.

Includes RSA BSAFE(R) Cryptographic or Security Protocol Software from RSA Security, Inc.

User: saul   Host: edatools   HostID: 11AC0200   PID: 28712
Memory  available: 24.9281 GB  physical: 27.3104 GB
Linux   : Rocky Linux release 8.10 (Green Obsidian)
CPU Type: 11th Gen Intel(R) Core(TM) i7-11700K @ 3.60GHz
All processors running at 3600.0 MHz
        Socket: Processors
        0:       0,  1,  2,  3,  4,  5,  6,  7,  8,  9
                10, 11, 12, 13, 14, 15
        
System load averages (1min, 5min, 15min) : 5.1 %, 7.6 %, 6.4 %
HPC is enabled


Simulating `input.scs' on edatools at 10:41:15 AM, Wed Nov 12, 2025 (process id: 28712).
Current working directory: /home/saul/projects/FIL3601/Sim/LAB2/transimpedance/adexl/results/data/Interactive.11/1/LAB2:transimpedance:1/netlist
Command line:
    /opt/tools/cadence/installs/SPECTRE241/tools/bin/spectre -64  \
        input.scs +escchars +log ../psf/spectre.out -format psfxl -raw  \
        ../psf +aps +mt +lqtimeout 900 -maxw 5 -maxn 5 -env ade  \
        -ahdllibdir  \
        /home/saul/projects/FIL3601/Sim/LAB2/transimpedance/adexl/results/data/Interactive.11/sharedData/CDS/ahdl/input.ahdlSimDB  \
        +logstatus  \
        +adespetkn=0001089D13A302B663E41FB550AF0DF415A679A322D5069144BF588C12F604E07EF416DC01A319B562BB63D375C3338A45A34EE944E21DA140F57FD74D894F9256F779D15D9175FF34980CBD6B9974D3349877CA11EF18A05BF743E336C85AE30EAA79D118F874D3349879D118F874D3349810C57CBF10945D8C00003681

Simulation Id: GY5hCUtmirn0dibo
Licensing Information:
[10:41:15.188769] Configured Lic search path (24.01-s002): 3000@lic08.ug.kth.se

Licensing Information:
[10:41:15.505968] Periodic Lic check successful

Loading /opt/tools/cadence/installs/SPECTRE241/tools.lnx86/cmi/lib/64bit/5.0/libinfineon_sh.so ...
Loading /opt/tools/cadence/installs/SPECTRE241/tools.lnx86/cmi/lib/64bit/5.0/libphilips_I_sh.so ...
Loading /opt/tools/cadence/installs/SPECTRE241/tools.lnx86/cmi/lib/64bit/5.0/libphilips_sh.so ...
Loading /opt/tools/cadence/installs/SPECTRE241/tools.lnx86/cmi/lib/64bit/5.0/libsparam_sh.so ...
Loading /opt/tools/cadence/installs/SPECTRE241/tools.lnx86/cmi/lib/64bit/5.0/libstmodels_sh.so ...
Reading file:  /home/saul/projects/FIL3601/Sim/LAB2/transimpedance/adexl/results/data/Interactive.11/1/LAB2:transimpedance:1/netlist/input.scs
Reading file:  /opt/tools/cadence/installs/SPECTRE241/tools.lnx86/spectre/etc/configs/spectre.cfg
Reading file:  /opt/pdk/xfab/XKIT/xh018/cadence/v10_0/spectre/v10_0_2/lpmos/config.scs
Reading file:  /opt/pdk/xfab/XKIT/xh018/cadence/v10_0/spectre/v10_0_2/lpmos/param.scs
Reading file:  /opt/pdk/xfab/XKIT/xh018/cadence/v10_0/spectre/v10_0_2/lpmos/bip.scs
Reading file:  /opt/pdk/xfab/XKIT/xh018/cadence/v10_0/spectre/v10_0_2/lpmos/models/bip/tm_bip.scs
Reading file:  /opt/pdk/xfab/XKIT/xh018/cadence/v10_0/spectre/v10_0_2/lpmos/models/bip/qpva.scs
Reading file:  /opt/pdk/xfab/XKIT/xh018/cadence/v10_0/spectre/v10_0_2/lpmos/models/bip/qpvb.scs
Reading file:  /opt/pdk/xfab/XKIT/xh018/cadence/v10_0/spectre/v10_0_2/lpmos/models/bip/qpvc.scs
Reading file:  /opt/pdk/xfab/XKIT/xh018/cadence/v10_0/spectre/v10_0_2/lpmos/models/bip/qpva3.scs
Reading file:  /opt/pdk/xfab/XKIT/xh018/cadence/v10_0/spectre/v10_0_2/lpmos/models/bip/qpvb3.scs
Reading file:  /opt/pdk/xfab/XKIT/xh018/cadence/v10_0/spectre/v10_0_2/lpmos/models/bip/qpvc3.scs
Reading file:  /opt/pdk/xfab/XKIT/xh018/cadence/v10_0/spectre/v10_0_2/lpmos/models/bip/qnva.scs
Reading file:  /opt/pdk/xfab/XKIT/xh018/cadence/v10_0/spectre/v10_0_2/lpmos/models/bip/qnvb.scs
Reading file:  /opt/pdk/xfab/XKIT/xh018/cadence/v10_0/spectre/v10_0_2/lpmos/models/bip/qnvba.scs
Reading file:  /opt/pdk/xfab/XKIT/xh018/cadence/v10_0/spectre/v10_0_2/lpmos/models/bip/qnvbb.scs
Reading file:  /opt/pdk/xfab/XKIT/xh018/cadence/v10_0/spectre/v10_0_2/lpmos/models/bip/qnvc.scs
Reading file:  /opt/pdk/xfab/XKIT/xh018/cadence/v10_0/spectre/v10_0_2/lpmos/models/bip/qnvca.scs
Reading file:  /opt/pdk/xfab/XKIT/xh018/cadence/v10_0/spectre/v10_0_2/lpmos/models/bip/qnvcb.scs
Reading file:  /opt/pdk/xfab/XKIT/xh018/cadence/v10_0/spectre/v10_0_2/lpmos/models/bip/qpvhscr.scs
Reading file:  /opt/pdk/xfab/XKIT/xh018/cadence/v10_0/spectre/v10_0_2/lpmos/models/bip/qpvascr.scs
Reading file:  /opt/pdk/xfab/XKIT/xh018/cadence/v10_0/spectre/v10_0_2/lpmos/models/bip/qpvhbscr.scs
Reading file:  /opt/pdk/xfab/XKIT/xh018/cadence/v10_0/spectre/v10_0_2/lpmos/models/bip/qpv_pa.scs
Reading file:  /opt/pdk/xfab/XKIT/xh018/cadence/v10_0/spectre/v10_0_2/lpmos/models/bip/qpv_pb.scs
Reading file:  /opt/pdk/xfab/XKIT/xh018/cadence/v10_0/spectre/v10_0_2/lpmos/models/bip/qpv_pc.scs
Reading file:  /opt/pdk/xfab/XKIT/xh018/cadence/v10_0/spectre/v10_0_2/lpmos/models/bip/qpv_pd.scs
Reading file:  /opt/pdk/xfab/XKIT/xh018/cadence/v10_0/spectre/v10_0_2/lpmos/models/bip/qpv_pe.scs
Reading file:  /opt/pdk/xfab/XKIT/xh018/cadence/v10_0/spectre/v10_0_2/lpmos/models/bip/qpv_pf.scs
Reading file:  /opt/pdk/xfab/XKIT/xh018/cadence/v10_0/spectre/v10_0_2/lpmos/models/bip/qpl_pa.scs
Reading file:  /opt/pdk/xfab/XKIT/xh018/cadence/v10_0/spectre/v10_0_2/lpmos/models/bip/qpl_pb.scs
Reading file:  /opt/pdk/xfab/XKIT/xh018/cadence/v10_0/spectre/v10_0_2/lpmos/models/bip/qpl_pc.scs
Reading file:  /opt/pdk/xfab/XKIT/xh018/cadence/v10_0/spectre/v10_0_2/lpmos/models/bip/qpl_pd.scs
Reading file:  /opt/pdk/xfab/XKIT/xh018/cadence/v10_0/spectre/v10_0_2/lpmos/models/bip/qpl_pe.scs
Reading file:  /opt/pdk/xfab/XKIT/xh018/cadence/v10_0/spectre/v10_0_2/lpmos/models/bip/qpl_pf.scs
Reading file:  /opt/pdk/xfab/XKIT/xh018/cadence/v10_0/spectre/v10_0_2/lpmos/models/bip/qnl_pa.scs
Reading file:  /opt/pdk/xfab/XKIT/xh018/cadence/v10_0/spectre/v10_0_2/lpmos/models/bip/qnl_pb.scs
Reading file:  /opt/pdk/xfab/XKIT/xh018/cadence/v10_0/spectre/v10_0_2/lpmos/models/bip/qnl_pc.scs
Reading file:  /opt/pdk/xfab/XKIT/xh018/cadence/v10_0/spectre/v10_0_2/lpmos/models/bip/qnl_pd.scs
Reading file:  /opt/pdk/xfab/XKIT/xh018/cadence/v10_0/spectre/v10_0_2/lpmos/models/bip/qnl_pe.scs
Reading file:  /opt/pdk/xfab/XKIT/xh018/cadence/v10_0/spectre/v10_0_2/lpmos/models/bip/qnl_pf.scs
Reading file:  /opt/pdk/xfab/XKIT/xh018/cadence/v10_0/spectre/v10_0_2/lpmos/cap.scs
Reading file:  /opt/pdk/xfab/XKIT/xh018/cadence/v10_0/spectre/v10_0_2/lpmos/models/cap/tm_cap.scs
Reading file:  /opt/pdk/xfab/XKIT/xh018/cadence/v10_0/spectre/v10_0_2/lpmos/models/cap/csandwt3.scs
Reading file:  /opt/pdk/xfab/XKIT/xh018/cadence/v10_0/spectre/v10_0_2/lpmos/models/cap/csandwt4.scs
Reading file:  /opt/pdk/xfab/XKIT/xh018/cadence/v10_0/spectre/v10_0_2/lpmos/models/cap/csandwt5.scs
Reading file:  /opt/pdk/xfab/XKIT/xh018/cadence/v10_0/spectre/v10_0_2/lpmos/models/cap/csf2p.scs
Reading file:  /opt/pdk/xfab/XKIT/xh018/cadence/v10_0/spectre/v10_0_2/lpmos/models/cap/csf3p.scs
Reading file:  /opt/pdk/xfab/XKIT/xh018/cadence/v10_0/spectre/v10_0_2/lpmos/models/cap/csf3.scs
Reading file:  /opt/pdk/xfab/XKIT/xh018/cadence/v10_0/spectre/v10_0_2/lpmos/models/cap/csf4.scs
Reading file:  /opt/pdk/xfab/XKIT/xh018/cadence/v10_0/spectre/v10_0_2/lpmos/models/cap/csf5.scs
Reading file:  /opt/pdk/xfab/XKIT/xh018/cadence/v10_0/spectre/v10_0_2/lpmos/models/cap/csft4.scs
Reading file:  /opt/pdk/xfab/XKIT/xh018/cadence/v10_0/spectre/v10_0_2/lpmos/models/cap/csft5.scs
Reading file:  /opt/pdk/xfab/XKIT/xh018/cadence/v10_0/spectre/v10_0_2/lpmos/models/cap/csft6.scs
Reading file:  /opt/pdk/xfab/XKIT/xh018/cadence/v10_0/spectre/v10_0_2/lpmos/models/cap/csf3a.scs
Reading file:  /opt/pdk/xfab/XKIT/xh018/cadence/v10_0/spectre/v10_0_2/lpmos/models/cap/csf4a.scs
Reading file:  /opt/pdk/xfab/XKIT/xh018/cadence/v10_0/spectre/v10_0_2/lpmos/models/cap/csf5a.scs
Reading file:  /opt/pdk/xfab/XKIT/xh018/cadence/v10_0/spectre/v10_0_2/lpmos/models/cap/csft4a.scs
Reading file:  /opt/pdk/xfab/XKIT/xh018/cadence/v10_0/spectre/v10_0_2/lpmos/models/cap/csft5a.scs
Reading file:  /opt/pdk/xfab/XKIT/xh018/cadence/v10_0/spectre/v10_0_2/lpmos/models/cap/csft6a.scs
Reading file:  /opt/pdk/xfab/XKIT/xh018/cadence/v10_0/spectre/v10_0_2/lpmos/models/cap/cif3a.scs
Reading file:  /opt/pdk/xfab/XKIT/xh018/cadence/v10_0/spectre/v10_0_2/lpmos/models/cap/cif4a.scs
Reading file:  /opt/pdk/xfab/XKIT/xh018/cadence/v10_0/spectre/v10_0_2/lpmos/models/cap/cif5a.scs
Reading file:  /opt/pdk/xfab/XKIT/xh018/cadence/v10_0/spectre/v10_0_2/lpmos/models/cap/cift4a.scs
Reading file:  /opt/pdk/xfab/XKIT/xh018/cadence/v10_0/spectre/v10_0_2/lpmos/models/cap/cift5a.scs
Reading file:  /opt/pdk/xfab/XKIT/xh018/cadence/v10_0/spectre/v10_0_2/lpmos/models/cap/cift6a.scs
Reading file:  /opt/pdk/xfab/XKIT/xh018/cadence/v10_0/spectre/v10_0_2/lpmos/models/cap/cmm3.scs
Reading file:  /opt/pdk/xfab/XKIT/xh018/cadence/v10_0/spectre/v10_0_2/lpmos/models/cap/cmm4t.scs
Reading file:  /opt/pdk/xfab/XKIT/xh018/cadence/v10_0/spectre/v10_0_2/lpmos/models/cap/cmm4.scs
Reading file:  /opt/pdk/xfab/XKIT/xh018/cadence/v10_0/spectre/v10_0_2/lpmos/models/cap/cmm5t.scs
Reading file:  /opt/pdk/xfab/XKIT/xh018/cadence/v10_0/spectre/v10_0_2/lpmos/models/cap/cmm6t.scs
Reading file:  /opt/pdk/xfab/XKIT/xh018/cadence/v10_0/spectre/v10_0_2/lpmos/models/cap/cdmm4.scs
Reading file:  /opt/pdk/xfab/XKIT/xh018/cadence/v10_0/spectre/v10_0_2/lpmos/models/cap/cdmm4t.scs
Reading file:  /opt/pdk/xfab/XKIT/xh018/cadence/v10_0/spectre/v10_0_2/lpmos/models/cap/ctmm5.scs
Reading file:  /opt/pdk/xfab/XKIT/xh018/cadence/v10_0/spectre/v10_0_2/lpmos/models/cap/ctmm5t.scs
Reading file:  /opt/pdk/xfab/XKIT/xh018/cadence/v10_0/spectre/v10_0_2/lpmos/models/cap/cmmh3.scs
Reading file:  /opt/pdk/xfab/XKIT/xh018/cadence/v10_0/spectre/v10_0_2/lpmos/models/cap/cmmh4t.scs
Reading file:  /opt/pdk/xfab/XKIT/xh018/cadence/v10_0/spectre/v10_0_2/lpmos/models/cap/cmmh4.scs
Reading file:  /opt/pdk/xfab/XKIT/xh018/cadence/v10_0/spectre/v10_0_2/lpmos/models/cap/cmmh5t.scs
Reading file:  /opt/pdk/xfab/XKIT/xh018/cadence/v10_0/spectre/v10_0_2/lpmos/models/cap/cmmh6t.scs
Reading file:  /opt/pdk/xfab/XKIT/xh018/cadence/v10_0/spectre/v10_0_2/lpmos/models/cap/cdmmh4.scs
Reading file:  /opt/pdk/xfab/XKIT/xh018/cadence/v10_0/spectre/v10_0_2/lpmos/models/cap/cdmmh4t.scs
Reading file:  /opt/pdk/xfab/XKIT/xh018/cadence/v10_0/spectre/v10_0_2/lpmos/models/cap/ctmmh5.scs
Reading file:  /opt/pdk/xfab/XKIT/xh018/cadence/v10_0/spectre/v10_0_2/lpmos/models/cap/ctmmh5t.scs
Reading file:  /opt/pdk/xfab/XKIT/xh018/cadence/v10_0/spectre/v10_0_2/lpmos/models/cap/mosvc.scs
Reading file:  /opt/pdk/xfab/XKIT/xh018/cadence/v10_0/spectre/v10_0_2/lpmos/models/cap/mosvc_pmos.scs
Reading file:  /opt/pdk/xfab/XKIT/xh018/cadence/v10_0/spectre/v10_0_2/lpmos/models/cap/mosvci.scs
Reading file:  /opt/pdk/xfab/XKIT/xh018/cadence/v10_0/spectre/v10_0_2/lpmos/models/cap/mosvci_nmos.scs
Reading file:  /opt/pdk/xfab/XKIT/xh018/cadence/v10_0/spectre/v10_0_2/lpmos/models/cap/mosvci_m.scs
Reading file:  /opt/pdk/xfab/XKIT/xh018/cadence/v10_0/spectre/v10_0_2/lpmos/models/cap/mosvc3.scs
Reading file:  /opt/pdk/xfab/XKIT/xh018/cadence/v10_0/spectre/v10_0_2/lpmos/models/cap/mosvc3_pmos.scs
Reading file:  /opt/pdk/xfab/XKIT/xh018/cadence/v10_0/spectre/v10_0_2/lpmos/models/cap/mosvc3i.scs
Reading file:  /opt/pdk/xfab/XKIT/xh018/cadence/v10_0/spectre/v10_0_2/lpmos/models/cap/mosvc3i_nmos.scs
Reading file:  /opt/pdk/xfab/XKIT/xh018/cadence/v10_0/spectre/v10_0_2/lpmos/models/cap/mosvc3i_m.scs
Reading file:  /opt/pdk/xfab/XKIT/xh018/cadence/v10_0/spectre/v10_0_2/lpmos/models/cap/cpod.scs
Reading file:  /opt/pdk/xfab/XKIT/xh018/cadence/v10_0/spectre/v10_0_2/lpmos/models/cap/cpod_i.scs
Reading file:  /opt/pdk/xfab/XKIT/xh018/cadence/v10_0/spectre/v10_0_2/lpmos/models/cap/cpodhv.scs
Reading file:  /opt/pdk/xfab/XKIT/xh018/cadence/v10_0/spectre/v10_0_2/lpmos/models/cap/cpodhv_i.scs
Reading file:  /opt/pdk/xfab/XKIT/xh018/cadence/v10_0/spectre/v10_0_2/lpmos/models/cap/cp1sub.scs
Reading file:  /opt/pdk/xfab/XKIT/xh018/cadence/v10_0/spectre/v10_0_2/lpmos/models/cap/cp1suba.scs
Reading file:  /opt/pdk/xfab/XKIT/xh018/cadence/v10_0/spectre/v10_0_2/lpmos/models/cap/cp1subp.scs
Reading file:  /opt/pdk/xfab/XKIT/xh018/cadence/v10_0/spectre/v10_0_2/lpmos/models/cap/tag_25v.scs
Reading file:  /opt/pdk/xfab/XKIT/xh018/cadence/v10_0/spectre/v10_0_2/lpmos/models/cap/tag_60v.scs
Reading file:  /opt/pdk/xfab/XKIT/xh018/cadence/v10_0/spectre/v10_0_2/lpmos/dio.scs
Reading file:  /opt/pdk/xfab/XKIT/xh018/cadence/v10_0/spectre/v10_0_2/lpmos/models/dio/tm_dio.scs
Reading file:  /opt/pdk/xfab/XKIT/xh018/cadence/v10_0/spectre/v10_0_2/lpmos/models/dio/dn.scs
Reading file:  /opt/pdk/xfab/XKIT/xh018/cadence/v10_0/spectre/v10_0_2/lpmos/models/dio/dp.scs
Reading file:  /opt/pdk/xfab/XKIT/xh018/cadence/v10_0/spectre/v10_0_2/lpmos/models/dio/dnw.scs
Reading file:  /opt/pdk/xfab/XKIT/xh018/cadence/v10_0/spectre/v10_0_2/lpmos/models/dio/dn3.scs
Reading file:  /opt/pdk/xfab/XKIT/xh018/cadence/v10_0/spectre/v10_0_2/lpmos/models/dio/dnn3.scs
Reading file:  /opt/pdk/xfab/XKIT/xh018/cadence/v10_0/spectre/v10_0_2/lpmos/models/dio/dp3.scs
Reading file:  /opt/pdk/xfab/XKIT/xh018/cadence/v10_0/spectre/v10_0_2/lpmos/models/dio/dnw3.scs
Reading file:  /opt/pdk/xfab/XKIT/xh018/cadence/v10_0/spectre/v10_0_2/lpmos/models/dio/ddnwmv.scs
Reading file:  /opt/pdk/xfab/XKIT/xh018/cadence/v10_0/spectre/v10_0_2/lpmos/models/dio/dpdnwmv.scs
Reading file:  /opt/pdk/xfab/XKIT/xh018/cadence/v10_0/spectre/v10_0_2/lpmos/models/dio/dipdnwmv.scs
Reading file:  /opt/pdk/xfab/XKIT/xh018/cadence/v10_0/spectre/v10_0_2/lpmos/models/dio/ddnw.scs
Reading file:  /opt/pdk/xfab/XKIT/xh018/cadence/v10_0/spectre/v10_0_2/lpmos/models/dio/ddnwa.scs
Reading file:  /opt/pdk/xfab/XKIT/xh018/cadence/v10_0/spectre/v10_0_2/lpmos/models/dio/dpdnw.scs
Reading file:  /opt/pdk/xfab/XKIT/xh018/cadence/v10_0/spectre/v10_0_2/lpmos/models/dio/dipdnw.scs
Reading file:  /opt/pdk/xfab/XKIT/xh018/cadence/v10_0/spectre/v10_0_2/lpmos/models/dio/dnhpw.scs
Reading file:  /opt/pdk/xfab/XKIT/xh018/cadence/v10_0/spectre/v10_0_2/lpmos/models/dio/dnhpwa.scs
Reading file:  /opt/pdk/xfab/XKIT/xh018/cadence/v10_0/spectre/v10_0_2/lpmos/models/dio/dphnw.scs
Reading file:  /opt/pdk/xfab/XKIT/xh018/cadence/v10_0/spectre/v10_0_2/lpmos/models/dio/dphnwa.scs
Reading file:  /opt/pdk/xfab/XKIT/xh018/cadence/v10_0/spectre/v10_0_2/lpmos/models/dio/dhpw.scs
Reading file:  /opt/pdk/xfab/XKIT/xh018/cadence/v10_0/spectre/v10_0_2/lpmos/models/dio/dhnw.scs
Reading file:  /opt/pdk/xfab/XKIT/xh018/cadence/v10_0/spectre/v10_0_2/lpmos/models/dio/dndf.scs
Reading file:  /opt/pdk/xfab/XKIT/xh018/cadence/v10_0/spectre/v10_0_2/lpmos/models/dio/dpdwhn.scs
Reading file:  /opt/pdk/xfab/XKIT/xh018/cadence/v10_0/spectre/v10_0_2/lpmos/models/dio/dwhn.scs
Reading file:  /opt/pdk/xfab/XKIT/xh018/cadence/v10_0/spectre/v10_0_2/lpmos/models/dio/dpwhn.scs
Reading file:  /opt/pdk/xfab/XKIT/xh018/cadence/v10_0/spectre/v10_0_2/lpmos/models/dio/dpndf.scs
Reading file:  /opt/pdk/xfab/XKIT/xh018/cadence/v10_0/spectre/v10_0_2/lpmos/models/dio/dpdddnw.scs
Reading file:  /opt/pdk/xfab/XKIT/xh018/cadence/v10_0/spectre/v10_0_2/lpmos/models/dio/ddpldnw.scs
Reading file:  /opt/pdk/xfab/XKIT/xh018/cadence/v10_0/spectre/v10_0_2/lpmos/models/dio/dn3dpl.scs
Reading file:  /opt/pdk/xfab/XKIT/xh018/cadence/v10_0/spectre/v10_0_2/lpmos/models/dio/dbn.scs
Reading file:  /opt/pdk/xfab/XKIT/xh018/cadence/v10_0/spectre/v10_0_2/lpmos/models/dio/dpol.scs
Reading file:  /opt/pdk/xfab/XKIT/xh018/cadence/v10_0/spectre/v10_0_2/lpmos/models/dio/dnpdd_scr.scs
Reading file:  /opt/pdk/xfab/XKIT/xh018/cadence/v10_0/spectre/v10_0_2/lpmos/models/dio/dpdd_scr.scs
Reading file:  /opt/pdk/xfab/XKIT/xh018/cadence/v10_0/spectre/v10_0_2/lpmos/models/dio/dsb.scs
Reading file:  /opt/pdk/xfab/XKIT/xh018/cadence/v10_0/spectre/v10_0_2/lpmos/models/dio/dsba.scs
Reading file:  /opt/pdk/xfab/XKIT/xh018/cadence/v10_0/spectre/v10_0_2/lpmos/models/dio/dsba_qp1.scs
Reading file:  /opt/pdk/xfab/XKIT/xh018/cadence/v10_0/spectre/v10_0_2/lpmos/models/dio/dnp20.scs
Reading file:  /opt/pdk/xfab/XKIT/xh018/cadence/v10_0/spectre/v10_0_2/lpmos/models/dio/dpp20.scs
Reading file:  /opt/pdk/xfab/XKIT/xh018/cadence/v10_0/spectre/v10_0_2/lpmos/models/dio/dn3sci.scs
Reading file:  /opt/pdk/xfab/XKIT/xh018/cadence/v10_0/spectre/v10_0_2/lpmos/models/dio/dscidnwmv.scs
Reading file:  /opt/pdk/xfab/XKIT/xh018/cadence/v10_0/spectre/v10_0_2/lpmos/mos.scs
Reading file:  /opt/pdk/xfab/XKIT/xh018/cadence/v10_0/spectre/v10_0_2/lpmos/models/mos/tm_mos.scs
Reading file:  /opt/pdk/xfab/XKIT/xh018/cadence/v10_0/spectre/v10_0_2/lpmos/models/mos/ne.scs
Reading file:  /opt/pdk/xfab/XKIT/xh018/cadence/v10_0/spectre/v10_0_2/lpmos/models/mos/nei.scs
Reading file:  /opt/pdk/xfab/XKIT/xh018/cadence/v10_0/spectre/v10_0_2/lpmos/models/mos/nei_6.scs
Reading file:  /opt/pdk/xfab/XKIT/xh018/cadence/v10_0/spectre/v10_0_2/lpmos/models/mos/nei_m_6.scs
Reading file:  /opt/pdk/xfab/XKIT/xh018/cadence/v10_0/spectre/v10_0_2/lpmos/models/mos/nei_a_6.scs
Reading file:  /opt/pdk/xfab/XKIT/xh018/cadence/v10_0/spectre/v10_0_2/lpmos/models/mos/pe.scs
Reading file:  /opt/pdk/xfab/XKIT/xh018/cadence/v10_0/spectre/v10_0_2/lpmos/models/mos/pe_5.scs
Reading file:  /opt/pdk/xfab/XKIT/xh018/cadence/v10_0/spectre/v10_0_2/lpmos/models/mos/pei.scs
Reading file:  /opt/pdk/xfab/XKIT/xh018/cadence/v10_0/spectre/v10_0_2/lpmos/models/mos/pei_5.scs
Reading file:  /opt/pdk/xfab/XKIT/xh018/cadence/v10_0/spectre/v10_0_2/lpmos/models/mos/pei_m_5.scs
Reading file:  /opt/pdk/xfab/XKIT/xh018/cadence/v10_0/spectre/v10_0_2/lpmos/models/mos/pei_a_5.scs
Reading file:  /opt/pdk/xfab/XKIT/xh018/cadence/v10_0/spectre/v10_0_2/lpmos/models/mos/nel.scs
Reading file:  /opt/pdk/xfab/XKIT/xh018/cadence/v10_0/spectre/v10_0_2/lpmos/models/mos/neli.scs
Reading file:  /opt/pdk/xfab/XKIT/xh018/cadence/v10_0/spectre/v10_0_2/lpmos/models/mos/neli_6.scs
Reading file:  /opt/pdk/xfab/XKIT/xh018/cadence/v10_0/spectre/v10_0_2/lpmos/models/mos/neli_m_6.scs
Reading file:  /opt/pdk/xfab/XKIT/xh018/cadence/v10_0/spectre/v10_0_2/lpmos/models/mos/pel.scs
Reading file:  /opt/pdk/xfab/XKIT/xh018/cadence/v10_0/spectre/v10_0_2/lpmos/models/mos/pel_5.scs
Reading file:  /opt/pdk/xfab/XKIT/xh018/cadence/v10_0/spectre/v10_0_2/lpmos/models/mos/peli.scs
Reading file:  /opt/pdk/xfab/XKIT/xh018/cadence/v10_0/spectre/v10_0_2/lpmos/models/mos/peli_5.scs
Reading file:  /opt/pdk/xfab/XKIT/xh018/cadence/v10_0/spectre/v10_0_2/lpmos/models/mos/peli_m_5.scs
Reading file:  /opt/pdk/xfab/XKIT/xh018/cadence/v10_0/spectre/v10_0_2/lpmos/models/mos/nn3.scs
Reading file:  /opt/pdk/xfab/XKIT/xh018/cadence/v10_0/spectre/v10_0_2/lpmos/models/mos/ne3.scs
Reading file:  /opt/pdk/xfab/XKIT/xh018/cadence/v10_0/spectre/v10_0_2/lpmos/models/mos/ne3i.scs
Reading file:  /opt/pdk/xfab/XKIT/xh018/cadence/v10_0/spectre/v10_0_2/lpmos/models/mos/ne3i_6.scs
Reading file:  /opt/pdk/xfab/XKIT/xh018/cadence/v10_0/spectre/v10_0_2/lpmos/models/mos/ne3i_m_6.scs
Reading file:  /opt/pdk/xfab/XKIT/xh018/cadence/v10_0/spectre/v10_0_2/lpmos/models/mos/ne3i_a_6.scs
Reading file:  /opt/pdk/xfab/XKIT/xh018/cadence/v10_0/spectre/v10_0_2/lpmos/models/mos/pe3.scs
Reading file:  /opt/pdk/xfab/XKIT/xh018/cadence/v10_0/spectre/v10_0_2/lpmos/models/mos/pe3_5.scs
Reading file:  /opt/pdk/xfab/XKIT/xh018/cadence/v10_0/spectre/v10_0_2/lpmos/models/mos/pe3i.scs
Reading file:  /opt/pdk/xfab/XKIT/xh018/cadence/v10_0/spectre/v10_0_2/lpmos/models/mos/pe3i_5.scs
Reading file:  /opt/pdk/xfab/XKIT/xh018/cadence/v10_0/spectre/v10_0_2/lpmos/models/mos/pe3i_m_5.scs
Reading file:  /opt/pdk/xfab/XKIT/xh018/cadence/v10_0/spectre/v10_0_2/lpmos/models/mos/pe3i_a_5.scs
Reading file:  /opt/pdk/xfab/XKIT/xh018/cadence/v10_0/spectre/v10_0_2/lpmos/models/mos/pe3ln.scs
Reading file:  /opt/pdk/xfab/XKIT/xh018/cadence/v10_0/spectre/v10_0_2/lpmos/models/mos/pe3ln_5.scs
Reading file:  /opt/pdk/xfab/XKIT/xh018/cadence/v10_0/spectre/v10_0_2/lpmos/models/mos/pe3lni.scs
Reading file:  /opt/pdk/xfab/XKIT/xh018/cadence/v10_0/spectre/v10_0_2/lpmos/models/mos/pe3lni_5.scs
Reading file:  /opt/pdk/xfab/XKIT/xh018/cadence/v10_0/spectre/v10_0_2/lpmos/models/mos/pe3lni_m_5.scs
Reading file:  /opt/pdk/xfab/XKIT/xh018/cadence/v10_0/spectre/v10_0_2/lpmos/models/mos/nd3.scs
Reading file:  /opt/pdk/xfab/XKIT/xh018/cadence/v10_0/spectre/v10_0_2/lpmos/models/mos/nd3_mos1.scs
Reading file:  /opt/pdk/xfab/XKIT/xh018/cadence/v10_0/spectre/v10_0_2/lpmos/models/mos/nd3_mos2.scs
Reading file:  /opt/pdk/xfab/XKIT/xh018/cadence/v10_0/spectre/v10_0_2/lpmos/models/mos/nd3i.scs
Reading file:  /opt/pdk/xfab/XKIT/xh018/cadence/v10_0/spectre/v10_0_2/lpmos/models/mos/nd3i_mos1.scs
Reading file:  /opt/pdk/xfab/XKIT/xh018/cadence/v10_0/spectre/v10_0_2/lpmos/models/mos/nd3i_mos2.scs
Reading file:  /opt/pdk/xfab/XKIT/xh018/cadence/v10_0/spectre/v10_0_2/lpmos/models/mos/nd3i_6.scs
Reading file:  /opt/pdk/xfab/XKIT/xh018/cadence/v10_0/spectre/v10_0_2/lpmos/models/mos/nd3i_m_6.scs
Reading file:  /opt/pdk/xfab/XKIT/xh018/cadence/v10_0/spectre/v10_0_2/lpmos/models/mos/nelna.scs
Reading file:  /opt/pdk/xfab/XKIT/xh018/cadence/v10_0/spectre/v10_0_2/lpmos/models/mos/nelnai.scs
Reading file:  /opt/pdk/xfab/XKIT/xh018/cadence/v10_0/spectre/v10_0_2/lpmos/models/mos/nelnai_6.scs
Reading file:  /opt/pdk/xfab/XKIT/xh018/cadence/v10_0/spectre/v10_0_2/lpmos/models/mos/nelnai_m_6.scs
Reading file:  /opt/pdk/xfab/XKIT/xh018/cadence/v10_0/spectre/v10_0_2/lpmos/models/mos/ne3lna.scs
Reading file:  /opt/pdk/xfab/XKIT/xh018/cadence/v10_0/spectre/v10_0_2/lpmos/models/mos/ne3lnai.scs
Reading file:  /opt/pdk/xfab/XKIT/xh018/cadence/v10_0/spectre/v10_0_2/lpmos/models/mos/ne3lnai_6.scs
Reading file:  /opt/pdk/xfab/XKIT/xh018/cadence/v10_0/spectre/v10_0_2/lpmos/models/mos/ne3lnai_m_6.scs
Reading file:  /opt/pdk/xfab/XKIT/xh018/cadence/v10_0/spectre/v10_0_2/lpmos/models/mos/pe3lna.scs
Reading file:  /opt/pdk/xfab/XKIT/xh018/cadence/v10_0/spectre/v10_0_2/lpmos/models/mos/pe3lna_5.scs
Reading file:  /opt/pdk/xfab/XKIT/xh018/cadence/v10_0/spectre/v10_0_2/lpmos/models/mos/pe3lnai.scs
Reading file:  /opt/pdk/xfab/XKIT/xh018/cadence/v10_0/spectre/v10_0_2/lpmos/models/mos/pe3lnai_5.scs
Reading file:  /opt/pdk/xfab/XKIT/xh018/cadence/v10_0/spectre/v10_0_2/lpmos/models/mos/pe3lnai_m_5.scs
Reading file:  /opt/pdk/xfab/XKIT/xh018/cadence/v10_0/spectre/v10_0_2/lpmos/models/mos/nmma.scs
Reading file:  /opt/pdk/xfab/XKIT/xh018/cadence/v10_0/spectre/v10_0_2/lpmos/models/mos/jf_nmma.scs
Reading file:  /opt/pdk/xfab/XKIT/xh018/cadence/v10_0/spectre/v10_0_2/lpmos/models/mos/nmma_bjt.scs
Reading file:  /opt/pdk/xfab/XKIT/xh018/cadence/v10_0/spectre/v10_0_2/lpmos/models/mos/pmma.scs
Reading file:  /opt/pdk/xfab/XKIT/xh018/cadence/v10_0/spectre/v10_0_2/lpmos/models/mos/jf_pmma.scs
Reading file:  /opt/pdk/xfab/XKIT/xh018/cadence/v10_0/spectre/v10_0_2/lpmos/models/mos/pmma_bjt.scs
Reading file:  /opt/pdk/xfab/XKIT/xh018/cadence/v10_0/spectre/v10_0_2/lpmos/models/mos/nedi.scs
Reading file:  /opt/pdk/xfab/XKIT/xh018/cadence/v10_0/spectre/v10_0_2/lpmos/models/mos/nedi_bjt.scs
Reading file:  /opt/pdk/xfab/XKIT/xh018/cadence/v10_0/spectre/v10_0_2/lpmos/models/mos/nedia.scs
Reading file:  /opt/pdk/xfab/XKIT/xh018/cadence/v10_0/spectre/v10_0_2/lpmos/models/mos/nedia_bjt.scs
Reading file:  /opt/pdk/xfab/XKIT/xh018/cadence/v10_0/spectre/v10_0_2/lpmos/models/mos/ped2.scs
Reading file:  /opt/pdk/xfab/XKIT/xh018/cadence/v10_0/spectre/v10_0_2/lpmos/models/mos/ped2_bjt.scs
Reading file:  /opt/pdk/xfab/XKIT/xh018/cadence/v10_0/spectre/v10_0_2/lpmos/models/mos/ped.scs
Reading file:  /opt/pdk/xfab/XKIT/xh018/cadence/v10_0/spectre/v10_0_2/lpmos/models/mos/ped_bjt.scs
Reading file:  /opt/pdk/xfab/XKIT/xh018/cadence/v10_0/spectre/v10_0_2/lpmos/models/mos/nhv.scs
Reading file:  /opt/pdk/xfab/XKIT/xh018/cadence/v10_0/spectre/v10_0_2/lpmos/models/mos/nhv_mos2.scs
Reading file:  /opt/pdk/xfab/XKIT/xh018/cadence/v10_0/spectre/v10_0_2/lpmos/models/mos/nhv_bjt.scs
Reading file:  /opt/pdk/xfab/XKIT/xh018/cadence/v10_0/spectre/v10_0_2/lpmos/models/mos/nhhv.scs
Reading file:  /opt/pdk/xfab/XKIT/xh018/cadence/v10_0/spectre/v10_0_2/lpmos/models/mos/nhhv_mos2.scs
Reading file:  /opt/pdk/xfab/XKIT/xh018/cadence/v10_0/spectre/v10_0_2/lpmos/models/mos/nhhv_bjt.scs
Reading file:  /opt/pdk/xfab/XKIT/xh018/cadence/v10_0/spectre/v10_0_2/lpmos/models/mos/nmmc.scs
Reading file:  /opt/pdk/xfab/XKIT/xh018/cadence/v10_0/spectre/v10_0_2/lpmos/models/mos/nmmc_mos2.scs
Reading file:  /opt/pdk/xfab/XKIT/xh018/cadence/v10_0/spectre/v10_0_2/lpmos/models/mos/nmmc_bjt.scs
Reading file:  /opt/pdk/xfab/XKIT/xh018/cadence/v10_0/spectre/v10_0_2/lpmos/models/mos/nmmd.scs
Reading file:  /opt/pdk/xfab/XKIT/xh018/cadence/v10_0/spectre/v10_0_2/lpmos/models/mos/nmmd_mos2.scs
Reading file:  /opt/pdk/xfab/XKIT/xh018/cadence/v10_0/spectre/v10_0_2/lpmos/models/mos/nmmd_bjt.scs
Reading file:  /opt/pdk/xfab/XKIT/xh018/cadence/v10_0/spectre/v10_0_2/lpmos/models/mos/nmc.scs
Reading file:  /opt/pdk/xfab/XKIT/xh018/cadence/v10_0/spectre/v10_0_2/lpmos/models/mos/nmc_mos2.scs
Reading file:  /opt/pdk/xfab/XKIT/xh018/cadence/v10_0/spectre/v10_0_2/lpmos/models/mos/nmc_bjt.scs
Reading file:  /opt/pdk/xfab/XKIT/xh018/cadence/v10_0/spectre/v10_0_2/lpmos/models/mos/nma.scs
Reading file:  /opt/pdk/xfab/XKIT/xh018/cadence/v10_0/spectre/v10_0_2/lpmos/models/mos/nma_bjt.scs
Reading file:  /opt/pdk/xfab/XKIT/xh018/cadence/v10_0/spectre/v10_0_2/lpmos/models/mos/phv.scs
Reading file:  /opt/pdk/xfab/XKIT/xh018/cadence/v10_0/spectre/v10_0_2/lpmos/models/mos/phv_mos2.scs
Reading file:  /opt/pdk/xfab/XKIT/xh018/cadence/v10_0/spectre/v10_0_2/lpmos/models/mos/phv_bjt.scs
Reading file:  /opt/pdk/xfab/XKIT/xh018/cadence/v10_0/spectre/v10_0_2/lpmos/models/mos/phhv.scs
Reading file:  /opt/pdk/xfab/XKIT/xh018/cadence/v10_0/spectre/v10_0_2/lpmos/models/mos/phhv_mos2.scs
Reading file:  /opt/pdk/xfab/XKIT/xh018/cadence/v10_0/spectre/v10_0_2/lpmos/models/mos/phhv_bjt.scs
Reading file:  /opt/pdk/xfab/XKIT/xh018/cadence/v10_0/spectre/v10_0_2/lpmos/models/mos/pmc.scs
Reading file:  /opt/pdk/xfab/XKIT/xh018/cadence/v10_0/spectre/v10_0_2/lpmos/models/mos/pmc_mos2.scs
Reading file:  /opt/pdk/xfab/XKIT/xh018/cadence/v10_0/spectre/v10_0_2/lpmos/models/mos/pmc_bjt.scs
Reading file:  /opt/pdk/xfab/XKIT/xh018/cadence/v10_0/spectre/v10_0_2/lpmos/models/mos/pmmc.scs
Reading file:  /opt/pdk/xfab/XKIT/xh018/cadence/v10_0/spectre/v10_0_2/lpmos/models/mos/pmmc_mos2.scs
Reading file:  /opt/pdk/xfab/XKIT/xh018/cadence/v10_0/spectre/v10_0_2/lpmos/models/mos/pmmc_bjt.scs
Reading file:  /opt/pdk/xfab/XKIT/xh018/cadence/v10_0/spectre/v10_0_2/lpmos/models/mos/pma.scs
Reading file:  /opt/pdk/xfab/XKIT/xh018/cadence/v10_0/spectre/v10_0_2/lpmos/models/mos/pma_bjt.scs
Reading file:  /opt/pdk/xfab/XKIT/xh018/cadence/v10_0/spectre/v10_0_2/lpmos/models/mos/pmb.scs
Reading file:  /opt/pdk/xfab/XKIT/xh018/cadence/v10_0/spectre/v10_0_2/lpmos/models/mos/nesvt.scs
Reading file:  /opt/pdk/xfab/XKIT/xh018/cadence/v10_0/spectre/v10_0_2/lpmos/models/mos/nesvti.scs
Reading file:  /opt/pdk/xfab/XKIT/xh018/cadence/v10_0/spectre/v10_0_2/lpmos/models/mos/nesvti_6.scs
Reading file:  /opt/pdk/xfab/XKIT/xh018/cadence/v10_0/spectre/v10_0_2/lpmos/models/mos/nesvti_m_6.scs
Reading file:  /opt/pdk/xfab/XKIT/xh018/cadence/v10_0/spectre/v10_0_2/lpmos/models/mos/pesvt.scs
Reading file:  /opt/pdk/xfab/XKIT/xh018/cadence/v10_0/spectre/v10_0_2/lpmos/models/mos/pesvt_5.scs
Reading file:  /opt/pdk/xfab/XKIT/xh018/cadence/v10_0/spectre/v10_0_2/lpmos/models/mos/pesvti.scs
Reading file:  /opt/pdk/xfab/XKIT/xh018/cadence/v10_0/spectre/v10_0_2/lpmos/models/mos/pesvti_5.scs
Reading file:  /opt/pdk/xfab/XKIT/xh018/cadence/v10_0/spectre/v10_0_2/lpmos/models/mos/pesvti_m_5.scs
Reading file:  /opt/pdk/xfab/XKIT/xh018/cadence/v10_0/spectre/v10_0_2/lpmos/models/mos/nhvd.scs
Reading file:  /opt/pdk/xfab/XKIT/xh018/cadence/v10_0/spectre/v10_0_2/lpmos/models/mos/nhvd_bjt.scs
Reading file:  /opt/pdk/xfab/XKIT/xh018/cadence/v10_0/spectre/v10_0_2/lpmos/models/mos/nhhvd.scs
Reading file:  /opt/pdk/xfab/XKIT/xh018/cadence/v10_0/spectre/v10_0_2/lpmos/models/mos/nhhvd_bjt.scs
Reading file:  /opt/pdk/xfab/XKIT/xh018/cadence/v10_0/spectre/v10_0_2/lpmos/photo.scs
Reading file:  /opt/pdk/xfab/XKIT/xh018/cadence/v10_0/spectre/v10_0_2/lpmos/models/photo/tm_pho.scs
Reading file:  /opt/pdk/xfab/XKIT/xh018/cadence/v10_0/spectre/v10_0_2/lpmos/models/photo/dphoa.scs
Reading file:  /opt/pdk/xfab/XKIT/xh018/cadence/v10_0/spectre/v10_0_2/lpmos/models/photo/dpho.va
Reading link:  /opt/tools/cadence/installs/SPECTRE241/tools.lnx86/spectre/etc/ahdl/constants.h
Reading file:  /opt/tools/cadence/installs/SPECTRE241/tools.lnx86/spectre/etc/ahdl/constants.vams
Reading link:  /opt/tools/cadence/installs/SPECTRE241/tools.lnx86/spectre/etc/ahdl/discipline.h
Reading file:  /opt/tools/cadence/installs/SPECTRE241/tools.lnx86/spectre/etc/ahdl/disciplines.vams
Reading file:  /opt/pdk/xfab/XKIT/xh018/cadence/v10_0/spectre/v10_0_2/lpmos/models/photo/dphob.scs
Reading file:  /opt/pdk/xfab/XKIT/xh018/cadence/v10_0/spectre/v10_0_2/lpmos/models/photo/dphoc.scs
Reading file:  /opt/pdk/xfab/XKIT/xh018/cadence/v10_0/spectre/v10_0_2/lpmos/models/photo/iphoto_uv.va
Reading file:  /opt/pdk/xfab/XKIT/xh018/cadence/v10_0/spectre/v10_0_2/lpmos/models/photo/dphoc_cat.scs
Reading file:  /opt/pdk/xfab/XKIT/xh018/cadence/v10_0/spectre/v10_0_2/lpmos/models/photo/dphoc0.scs
Reading file:  /opt/pdk/xfab/XKIT/xh018/cadence/v10_0/spectre/v10_0_2/lpmos/models/photo/dphoc0_cat.scs
Reading file:  /opt/pdk/xfab/XKIT/xh018/cadence/v10_0/spectre/v10_0_2/lpmos/models/photo/dphocfp.scs
Reading file:  /opt/pdk/xfab/XKIT/xh018/cadence/v10_0/spectre/v10_0_2/lpmos/models/photo/dphocfp_cat.scs
Reading file:  /opt/pdk/xfab/XKIT/xh018/cadence/v10_0/spectre/v10_0_2/lpmos/models/photo/dphod.scs
Reading file:  /opt/pdk/xfab/XKIT/xh018/cadence/v10_0/spectre/v10_0_2/lpmos/models/photo/dphod_an1.scs
Reading file:  /opt/pdk/xfab/XKIT/xh018/cadence/v10_0/spectre/v10_0_2/lpmos/models/photo/dphod_an2.scs
Reading file:  /opt/pdk/xfab/XKIT/xh018/cadence/v10_0/spectre/v10_0_2/lpmos/models/photo/dphod0.scs
Reading file:  /opt/pdk/xfab/XKIT/xh018/cadence/v10_0/spectre/v10_0_2/lpmos/models/photo/dphod0_an1.scs
Reading file:  /opt/pdk/xfab/XKIT/xh018/cadence/v10_0/spectre/v10_0_2/lpmos/models/photo/dphod0_an2.scs
Reading file:  /opt/pdk/xfab/XKIT/xh018/cadence/v10_0/spectre/v10_0_2/lpmos/models/photo/dphodfp.scs
Reading file:  /opt/pdk/xfab/XKIT/xh018/cadence/v10_0/spectre/v10_0_2/lpmos/models/photo/dphodfp_an1.scs
Reading file:  /opt/pdk/xfab/XKIT/xh018/cadence/v10_0/spectre/v10_0_2/lpmos/models/photo/dphodfp_an2.scs
Reading file:  /opt/pdk/xfab/XKIT/xh018/cadence/v10_0/spectre/v10_0_2/lpmos/models/photo/dspada0.scs
Reading file:  /opt/pdk/xfab/XKIT/xh018/cadence/v10_0/spectre/v10_0_2/lpmos/models/photo/ispad.va
Reading file:  /opt/pdk/xfab/XKIT/xh018/cadence/v10_0/spectre/v10_0_2/lpmos/models/photo/dapb.scs
Reading file:  /opt/pdk/xfab/XKIT/xh018/cadence/v10_0/spectre/v10_0_2/lpmos/models/photo/iphoto_apd_trig.va
Reading file:  /opt/pdk/xfab/XKIT/xh018/cadence/v10_0/spectre/v10_0_2/lpmos/models/photo/dapb_jun.scs
Reading file:  /opt/pdk/xfab/XKIT/xh018/cadence/v10_0/spectre/v10_0_2/lpmos/models/photo/dapb_trig.scs
Reading file:  /opt/pdk/xfab/XKIT/xh018/cadence/v10_0/spectre/v10_0_2/lpmos/models/photo/dapb0.scs
Reading file:  /opt/pdk/xfab/XKIT/xh018/cadence/v10_0/spectre/v10_0_2/lpmos/models/photo/dapb0_jun.scs
Reading file:  /opt/pdk/xfab/XKIT/xh018/cadence/v10_0/spectre/v10_0_2/lpmos/models/photo/dspb.scs
Reading file:  /opt/pdk/xfab/XKIT/xh018/cadence/v10_0/spectre/v10_0_2/lpmos/models/photo/ispad_trig.va
Reading file:  /opt/pdk/xfab/XKIT/xh018/cadence/v10_0/spectre/v10_0_2/lpmos/models/photo/dspb_jun.scs
Reading file:  /opt/pdk/xfab/XKIT/xh018/cadence/v10_0/spectre/v10_0_2/lpmos/models/photo/dspb_trig.scs
Reading file:  /opt/pdk/xfab/XKIT/xh018/cadence/v10_0/spectre/v10_0_2/lpmos/models/photo/dspb0.scs
Reading file:  /opt/pdk/xfab/XKIT/xh018/cadence/v10_0/spectre/v10_0_2/lpmos/models/photo/dspb0_jun.scs
Reading file:  /opt/pdk/xfab/XKIT/xh018/cadence/v10_0/spectre/v10_0_2/lpmos/models/photo/dspbfep.scs
Reading file:  /opt/pdk/xfab/XKIT/xh018/cadence/v10_0/spectre/v10_0_2/lpmos/models/photo/dapda.scs
Reading file:  /opt/pdk/xfab/XKIT/xh018/cadence/v10_0/spectre/v10_0_2/lpmos/models/photo/iphoto_apd.va
Reading file:  /opt/pdk/xfab/XKIT/xh018/cadence/v10_0/spectre/v10_0_2/lpmos/models/photo/dapda_cat.scs
Reading file:  /opt/pdk/xfab/XKIT/xh018/cadence/v10_0/spectre/v10_0_2/lpmos/models/photo/dapda0.scs
Reading file:  /opt/pdk/xfab/XKIT/xh018/cadence/v10_0/spectre/v10_0_2/lpmos/models/photo/dspada.scs
Reading file:  /opt/pdk/xfab/XKIT/xh018/cadence/v10_0/spectre/v10_0_2/lpmos/models/photo/dspada_cat.scs
Reading file:  /opt/pdk/xfab/XKIT/xh018/cadence/v10_0/spectre/v10_0_2/lpmos/res.scs
Reading file:  /opt/pdk/xfab/XKIT/xh018/cadence/v10_0/spectre/v10_0_2/lpmos/models/res/tm_res.scs
Reading file:  /opt/pdk/xfab/XKIT/xh018/cadence/v10_0/spectre/v10_0_2/lpmos/models/res/rdn.scs
Reading file:  /opt/pdk/xfab/XKIT/xh018/cadence/v10_0/spectre/v10_0_2/lpmos/models/res/rdn_esd.scs
Reading file:  /opt/pdk/xfab/XKIT/xh018/cadence/v10_0/spectre/v10_0_2/lpmos/models/res/rdp.scs
Reading file:  /opt/pdk/xfab/XKIT/xh018/cadence/v10_0/spectre/v10_0_2/lpmos/models/res/rdp_io.scs
Reading file:  /opt/pdk/xfab/XKIT/xh018/cadence/v10_0/spectre/v10_0_2/lpmos/models/res/rdp_esd.scs
Reading file:  /opt/pdk/xfab/XKIT/xh018/cadence/v10_0/spectre/v10_0_2/lpmos/models/res/rnw.scs
Reading file:  /opt/pdk/xfab/XKIT/xh018/cadence/v10_0/spectre/v10_0_2/lpmos/models/res/rnw_scr.scs
Reading file:  /opt/pdk/xfab/XKIT/xh018/cadence/v10_0/spectre/v10_0_2/lpmos/models/res/rdn3.scs
Reading file:  /opt/pdk/xfab/XKIT/xh018/cadence/v10_0/spectre/v10_0_2/lpmos/models/res/rdp3.scs
Reading file:  /opt/pdk/xfab/XKIT/xh018/cadence/v10_0/spectre/v10_0_2/lpmos/models/res/rnw3.scs
Reading file:  /opt/pdk/xfab/XKIT/xh018/cadence/v10_0/spectre/v10_0_2/lpmos/models/res/rnw3_scr.scs
Reading file:  /opt/pdk/xfab/XKIT/xh018/cadence/v10_0/spectre/v10_0_2/lpmos/models/res/rdnwmv.scs
Reading file:  /opt/pdk/xfab/XKIT/xh018/cadence/v10_0/spectre/v10_0_2/lpmos/models/res/rnp1.scs
Reading file:  /opt/pdk/xfab/XKIT/xh018/cadence/v10_0/spectre/v10_0_2/lpmos/models/res/rnp1_3.scs
Reading file:  /opt/pdk/xfab/XKIT/xh018/cadence/v10_0/spectre/v10_0_2/lpmos/models/res/rpp1.scs
Reading file:  /opt/pdk/xfab/XKIT/xh018/cadence/v10_0/spectre/v10_0_2/lpmos/models/res/rpp1_3.scs
Reading file:  /opt/pdk/xfab/XKIT/xh018/cadence/v10_0/spectre/v10_0_2/lpmos/models/res/rpp1s.scs
Reading file:  /opt/pdk/xfab/XKIT/xh018/cadence/v10_0/spectre/v10_0_2/lpmos/models/res/rpp1s_3.scs
Reading file:  /opt/pdk/xfab/XKIT/xh018/cadence/v10_0/spectre/v10_0_2/lpmos/models/res/rnp1h.scs
Reading file:  /opt/pdk/xfab/XKIT/xh018/cadence/v10_0/spectre/v10_0_2/lpmos/models/res/rnp1h_3.scs
Reading file:  /opt/pdk/xfab/XKIT/xh018/cadence/v10_0/spectre/v10_0_2/lpmos/models/res/rpp1k1.scs
Reading file:  /opt/pdk/xfab/XKIT/xh018/cadence/v10_0/spectre/v10_0_2/lpmos/models/res/rpp1k1_3.scs
Reading file:  /opt/pdk/xfab/XKIT/xh018/cadence/v10_0/spectre/v10_0_2/lpmos/models/res/rctdn.scs
Reading file:  /opt/pdk/xfab/XKIT/xh018/cadence/v10_0/spectre/v10_0_2/lpmos/models/res/rctdp.scs
Reading file:  /opt/pdk/xfab/XKIT/xh018/cadence/v10_0/spectre/v10_0_2/lpmos/models/res/rctp1.scs
Reading file:  /opt/pdk/xfab/XKIT/xh018/cadence/v10_0/spectre/v10_0_2/lpmos/models/res/rsildn.scs
Reading file:  /opt/pdk/xfab/XKIT/xh018/cadence/v10_0/spectre/v10_0_2/lpmos/models/res/rsildp.scs
Reading file:  /opt/pdk/xfab/XKIT/xh018/cadence/v10_0/spectre/v10_0_2/lpmos/models/res/rsilnp1.scs
Reading file:  /opt/pdk/xfab/XKIT/xh018/cadence/v10_0/spectre/v10_0_2/lpmos/models/res/rsilpp1.scs
Reading file:  /opt/pdk/xfab/XKIT/xh018/cadence/v10_0/spectre/v10_0_2/lpmos/models/res/rsbdn.scs
Reading file:  /opt/pdk/xfab/XKIT/xh018/cadence/v10_0/spectre/v10_0_2/lpmos/models/res/rsbdp.scs
Reading file:  /opt/pdk/xfab/XKIT/xh018/cadence/v10_0/spectre/v10_0_2/lpmos/models/res/rsbdn3.scs
Reading file:  /opt/pdk/xfab/XKIT/xh018/cadence/v10_0/spectre/v10_0_2/lpmos/models/res/rsbdp3.scs
Reading file:  /opt/pdk/xfab/XKIT/xh018/cadence/v10_0/spectre/v10_0_2/lpmos/models/res/rsbnp1.scs
Reading file:  /opt/pdk/xfab/XKIT/xh018/cadence/v10_0/spectre/v10_0_2/lpmos/models/res/rsbpp1.scs
Reading file:  /opt/pdk/xfab/XKIT/xh018/cadence/v10_0/spectre/v10_0_2/lpmos/models/res/rsbpp1k1.scs
Reading file:  /opt/pdk/xfab/XKIT/xh018/cadence/v10_0/spectre/v10_0_2/lpmos/models/res/rm1.scs
Reading file:  /opt/pdk/xfab/XKIT/xh018/cadence/v10_0/spectre/v10_0_2/lpmos/models/res/rm2.scs
Reading file:  /opt/pdk/xfab/XKIT/xh018/cadence/v10_0/spectre/v10_0_2/lpmos/models/res/rm3.scs
Reading file:  /opt/pdk/xfab/XKIT/xh018/cadence/v10_0/spectre/v10_0_2/lpmos/models/res/rm4.scs
Reading file:  /opt/pdk/xfab/XKIT/xh018/cadence/v10_0/spectre/v10_0_2/lpmos/models/res/rm5.scs
Reading file:  /opt/pdk/xfab/XKIT/xh018/cadence/v10_0/spectre/v10_0_2/lpmos/models/res/rmtp.scs
Reading file:  /opt/pdk/xfab/XKIT/xh018/cadence/v10_0/spectre/v10_0_2/lpmos/models/res/rmtpl.scs
Reading file:  /opt/pdk/xfab/XKIT/xh018/cadence/v10_0/spectre/v10_0_2/lpmos/models/res/pfuse.scs
Reading file:  /opt/pdk/xfab/XKIT/xh018/cadence/v10_0/spectre/v10_0_2/lpmos/models/res/s_res.scs
Time for NDB Parsing: CPU = 182.303 ms, elapsed = 675.187 ms.
Time accumulated: CPU = 342.007 ms, elapsed = 675.198 ms.
Peak resident memory used = 201 Mbytes.

Time for Elaboration: CPU = 13.045 ms, elapsed = 14.08 ms.
Time accumulated: CPU = 355.135 ms, elapsed = 689.403 ms.
Peak resident memory used = 212 Mbytes.


Notice from spectre during hierarchy flattening.
    The value 'psf' specified for the 'checklimitdest' option will no longer be supported in future releases. Use 'spectre -h' to see other recommended values for the 'checklimitdest' option.


Time for EDB Visiting: CPU = 813 us, elapsed = 1.05286 ms.
Time accumulated: CPU = 356.037 ms, elapsed = 690.599 ms.
Peak resident memory used = 213 Mbytes.


Notice from spectre during initial setup.
    Multithreading is disabled due to the size of the design being too small.


Netlist title:
        // Point Netlist Generated on: Nov 12 10:41:12 2025


Global user options:
         psfversion = 1.4.0
            vabstol = 1e-06
            iabstol = 1e-12
               temp = 27
               gmin = 1e-12
             rforce = 1
           maxnotes = 5
           maxwarns = 5
             digits = 5
               cols = 80
             pivrel = 0.001
           sensfile = ../psf/sens.output
     checklimitdest = psf
               save = allpub
             reltol = 0.001
               tnom = 27
             scalem = 1
              scale = 1

Scoped user options:

Circuit inventory:
              nodes 5
            bsim3v3 1     
          capacitor 2     
            isource 2     
           resistor 2     
               vcvs 1     
            vsource 2     

Analysis and control statement inventory:
                 ac 1     
                 dc 1     
               info 7     
              noise 1     

Output statements:
             .probe 0     
           .measure 0     
               save 0     


Notice from spectre during initial setup.
    APS enabled.

Time for parsing: CPU = 2.195 ms, elapsed = 11.759 ms.
Time accumulated: CPU = 358.3 ms, elapsed = 702.465 ms.
Peak resident memory used = 217 Mbytes.

~~~~~~~~~~~~~~~~~~~~~~
Pre-Simulation Summary
~~~~~~~~~~~~~~~~~~~~~~
   -   (APS) Multi-threading. The recommended number of threads is 1, consider adding +mt=1 on command line.
~~~~~~~~~~~~~~~~~~~~~~

******************************************
AC Analysis `ac': freq = (10 mHz -> 1 GHz)
******************************************
Trying `homotopy = gmin'.
Homotopy: gmin, steps: 53
Convergence achieved in 297 iterations.
DC simulation time: CPU = 1.235 ms, elapsed = 1.62983 ms.

Opening the PSF file ../psf/ac.ac ...
    ac: freq = 19.95 mHz   (2.73 %), step = 1.474 mHz    (303 m%)
    ac: freq = 21.54 mHz   (3.03 %), step = 1.592 mHz    (303 m%)
    ac: freq = 23.26 mHz   (3.33 %), step = 1.719 mHz    (303 m%)
    ac: freq = 25.12 mHz   (3.64 %), step = 1.856 mHz    (303 m%)
    ac: freq = 27.12 mHz   (3.94 %), step = 2.004 mHz    (303 m%)
    ac: freq = 29.29 mHz   (4.24 %), step = 2.164 mHz    (303 m%)
    ac: freq = 31.62 mHz   (4.55 %), step = 2.336 mHz    (303 m%)
    ac: freq = 34.15 mHz   (4.85 %), step = 2.523 mHz    (303 m%)
    ac: freq = 36.87 mHz   (5.15 %), step = 2.724 mHz    (303 m%)
    ac: freq = 39.81 mHz   (5.45 %), step = 2.941 mHz    (303 m%)
    ac: freq = 42.99 mHz   (5.76 %), step = 3.176 mHz    (303 m%)
    ac: freq = 46.42 mHz   (6.06 %), step = 3.429 mHz    (303 m%)
    ac: freq = 50.12 mHz   (6.36 %), step = 3.703 mHz    (303 m%)
    ac: freq = 54.12 mHz   (6.67 %), step = 3.998 mHz    (303 m%)
    ac: freq = 58.43 mHz   (6.97 %), step = 4.317 mHz    (303 m%)
    ac: freq = 63.1 mHz    (7.27 %), step = 4.662 mHz    (303 m%)
    ac: freq = 68.13 mHz   (7.58 %), step = 5.033 mHz    (303 m%)
    ac: freq = 73.56 mHz   (7.88 %), step = 5.435 mHz    (303 m%)
    ac: freq = 79.43 mHz   (8.18 %), step = 5.869 mHz    (303 m%)
    ac: freq = 85.77 mHz   (8.48 %), step = 6.337 mHz    (303 m%)
    ac: freq = 92.61 mHz   (8.79 %), step = 6.842 mHz    (303 m%)
    ac: freq = 100 mHz     (9.09 %), step = 7.388 mHz    (303 m%)
    ac: freq = 108 mHz     (9.39 %), step = 7.978 mHz    (303 m%)
    ac: freq = 116.6 mHz    (9.7 %), step = 8.614 mHz    (303 m%)
    ac: freq = 125.9 mHz     (10 %), step = 9.301 mHz    (303 m%)
    ac: freq = 135.9 mHz   (10.3 %), step = 10.04 mHz    (303 m%)
    ac: freq = 146.8 mHz   (10.6 %), step = 10.84 mHz    (303 m%)
    ac: freq = 158.5 mHz   (10.9 %), step = 11.71 mHz    (303 m%)
    ac: freq = 171.1 mHz   (11.2 %), step = 12.64 mHz    (303 m%)
    ac: freq = 184.8 mHz   (11.5 %), step = 13.65 mHz    (303 m%)
    ac: freq = 199.5 mHz   (11.8 %), step = 14.74 mHz    (303 m%)
    ac: freq = 215.4 mHz   (12.1 %), step = 15.92 mHz    (303 m%)
    ac: freq = 232.6 mHz   (12.4 %), step = 17.19 mHz    (303 m%)
    ac: freq = 251.2 mHz   (12.7 %), step = 18.56 mHz    (303 m%)
    ac: freq = 271.2 mHz     (13 %), step = 20.04 mHz    (303 m%)
    ac: freq = 292.9 mHz   (13.3 %), step = 21.64 mHz    (303 m%)
    ac: freq = 316.2 mHz   (13.6 %), step = 23.36 mHz    (303 m%)
    ac: freq = 341.5 mHz   (13.9 %), step = 25.23 mHz    (303 m%)
    ac: freq = 368.7 mHz   (14.2 %), step = 27.24 mHz    (303 m%)
    ac: freq = 398.1 mHz   (14.5 %), step = 29.41 mHz    (303 m%)
    ac: freq = 429.9 mHz   (14.8 %), step = 31.76 mHz    (303 m%)
    ac: freq = 464.2 mHz   (15.2 %), step = 34.29 mHz    (303 m%)
    ac: freq = 501.2 mHz   (15.5 %), step = 37.03 mHz    (303 m%)
    ac: freq = 541.2 mHz   (15.8 %), step = 39.98 mHz    (303 m%)
    ac: freq = 584.3 mHz   (16.1 %), step = 43.17 mHz    (303 m%)
    ac: freq = 631 mHz     (16.4 %), step = 46.62 mHz    (303 m%)
    ac: freq = 681.3 mHz   (16.7 %), step = 50.33 mHz    (303 m%)
    ac: freq = 735.6 mHz     (17 %), step = 54.35 mHz    (303 m%)
    ac: freq = 794.3 mHz   (17.3 %), step = 58.69 mHz    (303 m%)
    ac: freq = 857.7 mHz   (17.6 %), step = 63.37 mHz    (303 m%)
    ac: freq = 926.1 mHz   (17.9 %), step = 68.42 mHz    (303 m%)
    ac: freq = 1 Hz        (18.2 %), step = 73.88 mHz    (303 m%)
    ac: freq = 1.08 Hz     (18.5 %), step = 79.78 mHz    (303 m%)
    ac: freq = 1.166 Hz    (18.8 %), step = 86.14 mHz    (303 m%)
    ac: freq = 1.259 Hz    (19.1 %), step = 93.01 mHz    (303 m%)
    ac: freq = 1.359 Hz    (19.4 %), step = 100.4 mHz    (303 m%)
    ac: freq = 1.468 Hz    (19.7 %), step = 108.4 mHz    (303 m%)
    ac: freq = 1.585 Hz      (20 %), step = 117.1 mHz    (303 m%)
    ac: freq = 1.711 Hz    (20.3 %), step = 126.4 mHz    (303 m%)
    ac: freq = 1.848 Hz    (20.6 %), step = 136.5 mHz    (303 m%)
    ac: freq = 1.995 Hz    (20.9 %), step = 147.4 mHz    (303 m%)
    ac: freq = 2.154 Hz    (21.2 %), step = 159.2 mHz    (303 m%)
    ac: freq = 2.326 Hz    (21.5 %), step = 171.9 mHz    (303 m%)
    ac: freq = 2.512 Hz    (21.8 %), step = 185.6 mHz    (303 m%)
    ac: freq = 2.712 Hz    (22.1 %), step = 200.4 mHz    (303 m%)
    ac: freq = 2.929 Hz    (22.4 %), step = 216.4 mHz    (303 m%)
    ac: freq = 3.162 Hz    (22.7 %), step = 233.6 mHz    (303 m%)
    ac: freq = 3.415 Hz      (23 %), step = 252.3 mHz    (303 m%)
    ac: freq = 3.687 Hz    (23.3 %), step = 272.4 mHz    (303 m%)
    ac: freq = 3.981 Hz    (23.6 %), step = 294.1 mHz    (303 m%)
    ac: freq = 4.299 Hz    (23.9 %), step = 317.6 mHz    (303 m%)
    ac: freq = 4.642 Hz    (24.2 %), step = 342.9 mHz    (303 m%)
    ac: freq = 5.012 Hz    (24.5 %), step = 370.3 mHz    (303 m%)
    ac: freq = 5.412 Hz    (24.8 %), step = 399.8 mHz    (303 m%)
    ac: freq = 5.843 Hz    (25.2 %), step = 431.7 mHz    (303 m%)
    ac: freq = 6.31 Hz     (25.5 %), step = 466.2 mHz    (303 m%)
    ac: freq = 6.813 Hz    (25.8 %), step = 503.3 mHz    (303 m%)
    ac: freq = 7.356 Hz    (26.1 %), step = 543.5 mHz    (303 m%)
    ac: freq = 7.943 Hz    (26.4 %), step = 586.9 mHz    (303 m%)
    ac: freq = 8.577 Hz    (26.7 %), step = 633.7 mHz    (303 m%)
    ac: freq = 9.261 Hz      (27 %), step = 684.2 mHz    (303 m%)
    ac: freq = 10 Hz       (27.3 %), step = 738.8 mHz    (303 m%)
    ac: freq = 10.8 Hz     (27.6 %), step = 797.8 mHz    (303 m%)
    ac: freq = 11.66 Hz    (27.9 %), step = 861.4 mHz    (303 m%)
    ac: freq = 12.59 Hz    (28.2 %), step = 930.1 mHz    (303 m%)
    ac: freq = 13.59 Hz    (28.5 %), step = 1.004 Hz     (303 m%)
    ac: freq = 14.68 Hz    (28.8 %), step = 1.084 Hz     (303 m%)
    ac: freq = 15.85 Hz    (29.1 %), step = 1.171 Hz     (303 m%)
    ac: freq = 17.11 Hz    (29.4 %), step = 1.264 Hz     (303 m%)
    ac: freq = 18.48 Hz    (29.7 %), step = 1.365 Hz     (303 m%)
    ac: freq = 19.95 Hz      (30 %), step = 1.474 Hz     (303 m%)
    ac: freq = 21.54 Hz    (30.3 %), step = 1.592 Hz     (303 m%)
    ac: freq = 23.26 Hz    (30.6 %), step = 1.719 Hz     (303 m%)
    ac: freq = 25.12 Hz    (30.9 %), step = 1.856 Hz     (303 m%)
    ac: freq = 27.12 Hz    (31.2 %), step = 2.004 Hz     (303 m%)
    ac: freq = 29.29 Hz    (31.5 %), step = 2.164 Hz     (303 m%)
    ac: freq = 31.62 Hz    (31.8 %), step = 2.336 Hz     (303 m%)
    ac: freq = 34.15 Hz    (32.1 %), step = 2.523 Hz     (303 m%)
    ac: freq = 36.87 Hz    (32.4 %), step = 2.724 Hz     (303 m%)
    ac: freq = 39.81 Hz    (32.7 %), step = 2.941 Hz     (303 m%)
    ac: freq = 42.99 Hz      (33 %), step = 3.176 Hz     (303 m%)
    ac: freq = 46.42 Hz    (33.3 %), step = 3.429 Hz     (303 m%)
    ac: freq = 50.12 Hz    (33.6 %), step = 3.703 Hz     (303 m%)
    ac: freq = 54.12 Hz    (33.9 %), step = 3.998 Hz     (303 m%)
    ac: freq = 58.43 Hz    (34.2 %), step = 4.317 Hz     (303 m%)
    ac: freq = 63.1 Hz     (34.5 %), step = 4.662 Hz     (303 m%)
    ac: freq = 68.13 Hz    (34.8 %), step = 5.033 Hz     (303 m%)
    ac: freq = 73.56 Hz    (35.2 %), step = 5.435 Hz     (303 m%)
    ac: freq = 79.43 Hz    (35.5 %), step = 5.869 Hz     (303 m%)
    ac: freq = 85.77 Hz    (35.8 %), step = 6.337 Hz     (303 m%)
    ac: freq = 92.61 Hz    (36.1 %), step = 6.842 Hz     (303 m%)
    ac: freq = 100 Hz      (36.4 %), step = 7.388 Hz     (303 m%)
    ac: freq = 108 Hz      (36.7 %), step = 7.978 Hz     (303 m%)
    ac: freq = 116.6 Hz      (37 %), step = 8.614 Hz     (303 m%)
    ac: freq = 125.9 Hz    (37.3 %), step = 9.301 Hz     (303 m%)
    ac: freq = 135.9 Hz    (37.6 %), step = 10.04 Hz     (303 m%)
    ac: freq = 146.8 Hz    (37.9 %), step = 10.84 Hz     (303 m%)
    ac: freq = 158.5 Hz    (38.2 %), step = 11.71 Hz     (303 m%)
    ac: freq = 171.1 Hz    (38.5 %), step = 12.64 Hz     (303 m%)
    ac: freq = 184.8 Hz    (38.8 %), step = 13.65 Hz     (303 m%)
    ac: freq = 199.5 Hz    (39.1 %), step = 14.74 Hz     (303 m%)
    ac: freq = 215.4 Hz    (39.4 %), step = 15.92 Hz     (303 m%)
    ac: freq = 232.6 Hz    (39.7 %), step = 17.19 Hz     (303 m%)
    ac: freq = 251.2 Hz      (40 %), step = 18.56 Hz     (303 m%)
    ac: freq = 271.2 Hz    (40.3 %), step = 20.04 Hz     (303 m%)
    ac: freq = 292.9 Hz    (40.6 %), step = 21.64 Hz     (303 m%)
    ac: freq = 316.2 Hz    (40.9 %), step = 23.36 Hz     (303 m%)
    ac: freq = 341.5 Hz    (41.2 %), step = 25.23 Hz     (303 m%)
    ac: freq = 368.7 Hz    (41.5 %), step = 27.24 Hz     (303 m%)
    ac: freq = 398.1 Hz    (41.8 %), step = 29.41 Hz     (303 m%)
    ac: freq = 429.9 Hz    (42.1 %), step = 31.76 Hz     (303 m%)
    ac: freq = 464.2 Hz    (42.4 %), step = 34.29 Hz     (303 m%)
    ac: freq = 501.2 Hz    (42.7 %), step = 37.03 Hz     (303 m%)
    ac: freq = 541.2 Hz      (43 %), step = 39.98 Hz     (303 m%)
    ac: freq = 584.3 Hz    (43.3 %), step = 43.17 Hz     (303 m%)
    ac: freq = 631 Hz      (43.6 %), step = 46.62 Hz     (303 m%)
    ac: freq = 681.3 Hz    (43.9 %), step = 50.33 Hz     (303 m%)
    ac: freq = 735.6 Hz    (44.2 %), step = 54.35 Hz     (303 m%)
    ac: freq = 794.3 Hz    (44.5 %), step = 58.69 Hz     (303 m%)
    ac: freq = 857.7 Hz    (44.8 %), step = 63.37 Hz     (303 m%)
    ac: freq = 926.1 Hz    (45.2 %), step = 68.42 Hz     (303 m%)
    ac: freq = 1 kHz       (45.5 %), step = 73.88 Hz     (303 m%)
    ac: freq = 1.08 kHz    (45.8 %), step = 79.78 Hz     (303 m%)
    ac: freq = 1.166 kHz   (46.1 %), step = 86.14 Hz     (303 m%)
    ac: freq = 1.259 kHz   (46.4 %), step = 93.01 Hz     (303 m%)
    ac: freq = 1.359 kHz   (46.7 %), step = 100.4 Hz     (303 m%)
    ac: freq = 1.468 kHz     (47 %), step = 108.4 Hz     (303 m%)
    ac: freq = 1.585 kHz   (47.3 %), step = 117.1 Hz     (303 m%)
    ac: freq = 1.711 kHz   (47.6 %), step = 126.4 Hz     (303 m%)
    ac: freq = 1.848 kHz   (47.9 %), step = 136.5 Hz     (303 m%)
    ac: freq = 1.995 kHz   (48.2 %), step = 147.4 Hz     (303 m%)
    ac: freq = 2.154 kHz   (48.5 %), step = 159.2 Hz     (303 m%)
    ac: freq = 2.326 kHz   (48.8 %), step = 171.9 Hz     (303 m%)
    ac: freq = 2.512 kHz   (49.1 %), step = 185.6 Hz     (303 m%)
    ac: freq = 2.712 kHz   (49.4 %), step = 200.4 Hz     (303 m%)
    ac: freq = 2.929 kHz   (49.7 %), step = 216.4 Hz     (303 m%)
    ac: freq = 3.162 kHz     (50 %), step = 233.6 Hz     (303 m%)
    ac: freq = 3.415 kHz   (50.3 %), step = 252.3 Hz     (303 m%)
    ac: freq = 3.687 kHz   (50.6 %), step = 272.4 Hz     (303 m%)
    ac: freq = 3.981 kHz   (50.9 %), step = 294.1 Hz     (303 m%)
    ac: freq = 4.299 kHz   (51.2 %), step = 317.6 Hz     (303 m%)
    ac: freq = 4.642 kHz   (51.5 %), step = 342.9 Hz     (303 m%)
    ac: freq = 5.012 kHz   (51.8 %), step = 370.3 Hz     (303 m%)
    ac: freq = 5.412 kHz   (52.1 %), step = 399.8 Hz     (303 m%)
    ac: freq = 5.843 kHz   (52.4 %), step = 431.7 Hz     (303 m%)
    ac: freq = 6.31 kHz    (52.7 %), step = 466.2 Hz     (303 m%)
    ac: freq = 6.813 kHz     (53 %), step = 503.3 Hz     (303 m%)
    ac: freq = 7.356 kHz   (53.3 %), step = 543.5 Hz     (303 m%)
    ac: freq = 7.943 kHz   (53.6 %), step = 586.9 Hz     (303 m%)
    ac: freq = 8.577 kHz   (53.9 %), step = 633.7 Hz     (303 m%)
    ac: freq = 9.261 kHz   (54.2 %), step = 684.2 Hz     (303 m%)
    ac: freq = 10 kHz      (54.5 %), step = 738.8 Hz     (303 m%)
    ac: freq = 10.8 kHz    (54.8 %), step = 797.8 Hz     (303 m%)
    ac: freq = 11.66 kHz   (55.2 %), step = 861.4 Hz     (303 m%)
    ac: freq = 12.59 kHz   (55.5 %), step = 930.1 Hz     (303 m%)
    ac: freq = 13.59 kHz   (55.8 %), step = 1.004 kHz    (303 m%)
    ac: freq = 14.68 kHz   (56.1 %), step = 1.084 kHz    (303 m%)
    ac: freq = 15.85 kHz   (56.4 %), step = 1.171 kHz    (303 m%)
    ac: freq = 17.11 kHz   (56.7 %), step = 1.264 kHz    (303 m%)
    ac: freq = 18.48 kHz     (57 %), step = 1.365 kHz    (303 m%)
    ac: freq = 19.95 kHz   (57.3 %), step = 1.474 kHz    (303 m%)
    ac: freq = 21.54 kHz   (57.6 %), step = 1.592 kHz    (303 m%)
    ac: freq = 23.26 kHz   (57.9 %), step = 1.719 kHz    (303 m%)
    ac: freq = 25.12 kHz   (58.2 %), step = 1.856 kHz    (303 m%)
    ac: freq = 27.12 kHz   (58.5 %), step = 2.004 kHz    (303 m%)
    ac: freq = 29.29 kHz   (58.8 %), step = 2.164 kHz    (303 m%)
    ac: freq = 31.62 kHz   (59.1 %), step = 2.336 kHz    (303 m%)
    ac: freq = 34.15 kHz   (59.4 %), step = 2.523 kHz    (303 m%)
    ac: freq = 36.87 kHz   (59.7 %), step = 2.724 kHz    (303 m%)
    ac: freq = 39.81 kHz     (60 %), step = 2.941 kHz    (303 m%)
    ac: freq = 42.99 kHz   (60.3 %), step = 3.176 kHz    (303 m%)
    ac: freq = 46.42 kHz   (60.6 %), step = 3.429 kHz    (303 m%)
    ac: freq = 50.12 kHz   (60.9 %), step = 3.703 kHz    (303 m%)
    ac: freq = 54.12 kHz   (61.2 %), step = 3.998 kHz    (303 m%)
    ac: freq = 58.43 kHz   (61.5 %), step = 4.317 kHz    (303 m%)
    ac: freq = 63.1 kHz    (61.8 %), step = 4.662 kHz    (303 m%)
    ac: freq = 68.13 kHz   (62.1 %), step = 5.033 kHz    (303 m%)
    ac: freq = 73.56 kHz   (62.4 %), step = 5.435 kHz    (303 m%)
    ac: freq = 79.43 kHz   (62.7 %), step = 5.869 kHz    (303 m%)
    ac: freq = 85.77 kHz     (63 %), step = 6.337 kHz    (303 m%)
    ac: freq = 92.61 kHz   (63.3 %), step = 6.842 kHz    (303 m%)
    ac: freq = 100 kHz     (63.6 %), step = 7.388 kHz    (303 m%)
    ac: freq = 108 kHz     (63.9 %), step = 7.978 kHz    (303 m%)
    ac: freq = 116.6 kHz   (64.2 %), step = 8.614 kHz    (303 m%)
    ac: freq = 125.9 kHz   (64.5 %), step = 9.301 kHz    (303 m%)
    ac: freq = 135.9 kHz   (64.8 %), step = 10.04 kHz    (303 m%)
    ac: freq = 146.8 kHz   (65.2 %), step = 10.84 kHz    (303 m%)
    ac: freq = 158.5 kHz   (65.5 %), step = 11.71 kHz    (303 m%)
    ac: freq = 171.1 kHz   (65.8 %), step = 12.64 kHz    (303 m%)
    ac: freq = 184.8 kHz   (66.1 %), step = 13.65 kHz    (303 m%)
    ac: freq = 199.5 kHz   (66.4 %), step = 14.74 kHz    (303 m%)
    ac: freq = 215.4 kHz   (66.7 %), step = 15.92 kHz    (303 m%)
    ac: freq = 232.6 kHz     (67 %), step = 17.19 kHz    (303 m%)
    ac: freq = 251.2 kHz   (67.3 %), step = 18.56 kHz    (303 m%)
    ac: freq = 271.2 kHz   (67.6 %), step = 20.04 kHz    (303 m%)
    ac: freq = 292.9 kHz   (67.9 %), step = 21.64 kHz    (303 m%)
    ac: freq = 316.2 kHz   (68.2 %), step = 23.36 kHz    (303 m%)
    ac: freq = 341.5 kHz   (68.5 %), step = 25.23 kHz    (303 m%)
    ac: freq = 368.7 kHz   (68.8 %), step = 27.24 kHz    (303 m%)
    ac: freq = 398.1 kHz   (69.1 %), step = 29.41 kHz    (303 m%)
    ac: freq = 429.9 kHz   (69.4 %), step = 31.76 kHz    (303 m%)
    ac: freq = 464.2 kHz   (69.7 %), step = 34.29 kHz    (303 m%)
    ac: freq = 501.2 kHz     (70 %), step = 37.03 kHz    (303 m%)
    ac: freq = 541.2 kHz   (70.3 %), step = 39.98 kHz    (303 m%)
    ac: freq = 584.3 kHz   (70.6 %), step = 43.17 kHz    (303 m%)
    ac: freq = 631 kHz     (70.9 %), step = 46.62 kHz    (303 m%)
    ac: freq = 681.3 kHz   (71.2 %), step = 50.33 kHz    (303 m%)
    ac: freq = 735.6 kHz   (71.5 %), step = 54.35 kHz    (303 m%)
    ac: freq = 794.3 kHz   (71.8 %), step = 58.69 kHz    (303 m%)
    ac: freq = 857.7 kHz   (72.1 %), step = 63.37 kHz    (303 m%)
    ac: freq = 926.1 kHz   (72.4 %), step = 68.42 kHz    (303 m%)
    ac: freq = 1 MHz       (72.7 %), step = 73.88 kHz    (303 m%)
    ac: freq = 1.08 MHz      (73 %), step = 79.78 kHz    (303 m%)
    ac: freq = 1.166 MHz   (73.3 %), step = 86.14 kHz    (303 m%)
    ac: freq = 1.259 MHz   (73.6 %), step = 93.01 kHz    (303 m%)
    ac: freq = 1.359 MHz   (73.9 %), step = 100.4 kHz    (303 m%)
    ac: freq = 1.468 MHz   (74.2 %), step = 108.4 kHz    (303 m%)
    ac: freq = 1.585 MHz   (74.5 %), step = 117.1 kHz    (303 m%)
    ac: freq = 1.711 MHz   (74.8 %), step = 126.4 kHz    (303 m%)
    ac: freq = 1.848 MHz   (75.2 %), step = 136.5 kHz    (303 m%)
    ac: freq = 1.995 MHz   (75.5 %), step = 147.4 kHz    (303 m%)
    ac: freq = 2.154 MHz   (75.8 %), step = 159.2 kHz    (303 m%)
    ac: freq = 2.326 MHz   (76.1 %), step = 171.9 kHz    (303 m%)
    ac: freq = 2.512 MHz   (76.4 %), step = 185.6 kHz    (303 m%)
    ac: freq = 2.712 MHz   (76.7 %), step = 200.4 kHz    (303 m%)
    ac: freq = 2.929 MHz     (77 %), step = 216.4 kHz    (303 m%)
    ac: freq = 3.162 MHz   (77.3 %), step = 233.6 kHz    (303 m%)
    ac: freq = 3.415 MHz   (77.6 %), step = 252.3 kHz    (303 m%)
    ac: freq = 3.687 MHz   (77.9 %), step = 272.4 kHz    (303 m%)
    ac: freq = 3.981 MHz   (78.2 %), step = 294.1 kHz    (303 m%)
    ac: freq = 4.299 MHz   (78.5 %), step = 317.6 kHz    (303 m%)
    ac: freq = 4.642 MHz   (78.8 %), step = 342.9 kHz    (303 m%)
    ac: freq = 5.012 MHz   (79.1 %), step = 370.3 kHz    (303 m%)
    ac: freq = 5.412 MHz   (79.4 %), step = 399.8 kHz    (303 m%)
    ac: freq = 5.843 MHz   (79.7 %), step = 431.7 kHz    (303 m%)
    ac: freq = 6.31 MHz      (80 %), step = 466.2 kHz    (303 m%)
    ac: freq = 6.813 MHz   (80.3 %), step = 503.3 kHz    (303 m%)
    ac: freq = 7.356 MHz   (80.6 %), step = 543.5 kHz    (303 m%)
    ac: freq = 7.943 MHz   (80.9 %), step = 586.9 kHz    (303 m%)
    ac: freq = 8.577 MHz   (81.2 %), step = 633.7 kHz    (303 m%)
    ac: freq = 9.261 MHz   (81.5 %), step = 684.2 kHz    (303 m%)
    ac: freq = 10 MHz      (81.8 %), step = 738.8 kHz    (303 m%)
    ac: freq = 10.8 MHz    (82.1 %), step = 797.8 kHz    (303 m%)
    ac: freq = 11.66 MHz   (82.4 %), step = 861.4 kHz    (303 m%)
    ac: freq = 12.59 MHz   (82.7 %), step = 930.1 kHz    (303 m%)
    ac: freq = 13.59 MHz     (83 %), step = 1.004 MHz    (303 m%)
    ac: freq = 14.68 MHz   (83.3 %), step = 1.084 MHz    (303 m%)
    ac: freq = 15.85 MHz   (83.6 %), step = 1.171 MHz    (303 m%)
    ac: freq = 17.11 MHz   (83.9 %), step = 1.264 MHz    (303 m%)
    ac: freq = 18.48 MHz   (84.2 %), step = 1.365 MHz    (303 m%)
    ac: freq = 19.95 MHz   (84.5 %), step = 1.474 MHz    (303 m%)
    ac: freq = 21.54 MHz   (84.8 %), step = 1.592 MHz    (303 m%)
    ac: freq = 23.26 MHz   (85.2 %), step = 1.719 MHz    (303 m%)
    ac: freq = 25.12 MHz   (85.5 %), step = 1.856 MHz    (303 m%)
    ac: freq = 27.12 MHz   (85.8 %), step = 2.004 MHz    (303 m%)
    ac: freq = 29.29 MHz   (86.1 %), step = 2.164 MHz    (303 m%)
    ac: freq = 31.62 MHz   (86.4 %), step = 2.336 MHz    (303 m%)
    ac: freq = 34.15 MHz   (86.7 %), step = 2.523 MHz    (303 m%)
    ac: freq = 36.87 MHz     (87 %), step = 2.724 MHz    (303 m%)
    ac: freq = 39.81 MHz   (87.3 %), step = 2.941 MHz    (303 m%)
    ac: freq = 42.99 MHz   (87.6 %), step = 3.176 MHz    (303 m%)
    ac: freq = 46.42 MHz   (87.9 %), step = 3.429 MHz    (303 m%)
    ac: freq = 50.12 MHz   (88.2 %), step = 3.703 MHz    (303 m%)
    ac: freq = 54.12 MHz   (88.5 %), step = 3.998 MHz    (303 m%)
    ac: freq = 58.43 MHz   (88.8 %), step = 4.317 MHz    (303 m%)
    ac: freq = 63.1 MHz    (89.1 %), step = 4.662 MHz    (303 m%)
    ac: freq = 68.13 MHz   (89.4 %), step = 5.033 MHz    (303 m%)
    ac: freq = 73.56 MHz   (89.7 %), step = 5.435 MHz    (303 m%)
    ac: freq = 79.43 MHz     (90 %), step = 5.869 MHz    (303 m%)
    ac: freq = 85.77 MHz   (90.3 %), step = 6.337 MHz    (303 m%)
    ac: freq = 92.61 MHz   (90.6 %), step = 6.842 MHz    (303 m%)
    ac: freq = 100 MHz     (90.9 %), step = 7.388 MHz    (303 m%)
    ac: freq = 108 MHz     (91.2 %), step = 7.978 MHz    (303 m%)
    ac: freq = 116.6 MHz   (91.5 %), step = 8.614 MHz    (303 m%)
    ac: freq = 125.9 MHz   (91.8 %), step = 9.301 MHz    (303 m%)
    ac: freq = 135.9 MHz   (92.1 %), step = 10.04 MHz    (303 m%)
    ac: freq = 146.8 MHz   (92.4 %), step = 10.84 MHz    (303 m%)
    ac: freq = 158.5 MHz   (92.7 %), step = 11.71 MHz    (303 m%)
    ac: freq = 171.1 MHz     (93 %), step = 12.64 MHz    (303 m%)
    ac: freq = 184.8 MHz   (93.3 %), step = 13.65 MHz    (303 m%)
    ac: freq = 199.5 MHz   (93.6 %), step = 14.74 MHz    (303 m%)
    ac: freq = 215.4 MHz   (93.9 %), step = 15.92 MHz    (303 m%)
    ac: freq = 232.6 MHz   (94.2 %), step = 17.19 MHz    (303 m%)
    ac: freq = 251.2 MHz   (94.5 %), step = 18.56 MHz    (303 m%)
    ac: freq = 271.2 MHz   (94.8 %), step = 20.04 MHz    (303 m%)
    ac: freq = 292.9 MHz   (95.2 %), step = 21.64 MHz    (303 m%)
    ac: freq = 316.2 MHz   (95.5 %), step = 23.36 MHz    (303 m%)
    ac: freq = 341.5 MHz   (95.8 %), step = 25.23 MHz    (303 m%)
    ac: freq = 368.7 MHz   (96.1 %), step = 27.24 MHz    (303 m%)
    ac: freq = 398.1 MHz   (96.4 %), step = 29.41 MHz    (303 m%)
    ac: freq = 429.9 MHz   (96.7 %), step = 31.76 MHz    (303 m%)
    ac: freq = 464.2 MHz     (97 %), step = 34.29 MHz    (303 m%)
    ac: freq = 501.2 MHz   (97.3 %), step = 37.03 MHz    (303 m%)
    ac: freq = 541.2 MHz   (97.6 %), step = 39.98 MHz    (303 m%)
    ac: freq = 584.3 MHz   (97.9 %), step = 43.17 MHz    (303 m%)
    ac: freq = 631 MHz     (98.2 %), step = 46.62 MHz    (303 m%)
    ac: freq = 681.3 MHz   (98.5 %), step = 50.33 MHz    (303 m%)
    ac: freq = 735.6 MHz   (98.8 %), step = 54.35 MHz    (303 m%)
    ac: freq = 794.3 MHz   (99.1 %), step = 58.69 MHz    (303 m%)
    ac: freq = 857.7 MHz   (99.4 %), step = 63.37 MHz    (303 m%)
    ac: freq = 926.1 MHz   (99.7 %), step = 68.42 MHz    (303 m%)
    ac: freq = 1 GHz        (100 %), step = 73.88 MHz    (303 m%)
Accumulated DC solution time =            1.71208 ms.
Intrinsic ac analysis time =              17.5109 ms.
Total time required for ac analysis `ac': CPU = 8.619 ms, elapsed = 19.3539 ms, util. = 44.5%.
Time accumulated: CPU = 374.583 ms, elapsed = 734.547 ms.
Peak resident memory used = 220 Mbytes.


************************************************
Noise Analysis `noise': freq = (10 mHz -> 1 GHz)
************************************************

Notice from spectre during Noise analysis `noise'.
    Operating points will not be recomputed: the circuit and conditions were not changed since previous analysis.


Opening the PSF file ../psf/noise.noise ...
    noise: freq = 19.95 mHz   (2.73 %), step = 1.474 mHz    (303 m%)
    noise: freq = 21.54 mHz   (3.03 %), step = 1.592 mHz    (303 m%)
    noise: freq = 23.26 mHz   (3.33 %), step = 1.719 mHz    (303 m%)
    noise: freq = 25.12 mHz   (3.64 %), step = 1.856 mHz    (303 m%)
    noise: freq = 27.12 mHz   (3.94 %), step = 2.004 mHz    (303 m%)
    noise: freq = 29.29 mHz   (4.24 %), step = 2.164 mHz    (303 m%)
    noise: freq = 31.62 mHz   (4.55 %), step = 2.336 mHz    (303 m%)
    noise: freq = 34.15 mHz   (4.85 %), step = 2.523 mHz    (303 m%)
    noise: freq = 36.87 mHz   (5.15 %), step = 2.724 mHz    (303 m%)
    noise: freq = 39.81 mHz   (5.45 %), step = 2.941 mHz    (303 m%)
    noise: freq = 42.99 mHz   (5.76 %), step = 3.176 mHz    (303 m%)
    noise: freq = 46.42 mHz   (6.06 %), step = 3.429 mHz    (303 m%)
    noise: freq = 50.12 mHz   (6.36 %), step = 3.703 mHz    (303 m%)
    noise: freq = 54.12 mHz   (6.67 %), step = 3.998 mHz    (303 m%)
    noise: freq = 58.43 mHz   (6.97 %), step = 4.317 mHz    (303 m%)
    noise: freq = 63.1 mHz    (7.27 %), step = 4.662 mHz    (303 m%)
    noise: freq = 68.13 mHz   (7.58 %), step = 5.033 mHz    (303 m%)
    noise: freq = 73.56 mHz   (7.88 %), step = 5.435 mHz    (303 m%)
    noise: freq = 79.43 mHz   (8.18 %), step = 5.869 mHz    (303 m%)
    noise: freq = 85.77 mHz   (8.48 %), step = 6.337 mHz    (303 m%)
    noise: freq = 92.61 mHz   (8.79 %), step = 6.842 mHz    (303 m%)
    noise: freq = 100 mHz     (9.09 %), step = 7.388 mHz    (303 m%)
    noise: freq = 108 mHz     (9.39 %), step = 7.978 mHz    (303 m%)
    noise: freq = 116.6 mHz    (9.7 %), step = 8.614 mHz    (303 m%)
    noise: freq = 125.9 mHz     (10 %), step = 9.301 mHz    (303 m%)
    noise: freq = 135.9 mHz   (10.3 %), step = 10.04 mHz    (303 m%)
    noise: freq = 146.8 mHz   (10.6 %), step = 10.84 mHz    (303 m%)
    noise: freq = 158.5 mHz   (10.9 %), step = 11.71 mHz    (303 m%)
    noise: freq = 171.1 mHz   (11.2 %), step = 12.64 mHz    (303 m%)
    noise: freq = 184.8 mHz   (11.5 %), step = 13.65 mHz    (303 m%)
    noise: freq = 199.5 mHz   (11.8 %), step = 14.74 mHz    (303 m%)
    noise: freq = 215.4 mHz   (12.1 %), step = 15.92 mHz    (303 m%)
    noise: freq = 232.6 mHz   (12.4 %), step = 17.19 mHz    (303 m%)
    noise: freq = 251.2 mHz   (12.7 %), step = 18.56 mHz    (303 m%)
    noise: freq = 271.2 mHz     (13 %), step = 20.04 mHz    (303 m%)
    noise: freq = 292.9 mHz   (13.3 %), step = 21.64 mHz    (303 m%)
    noise: freq = 316.2 mHz   (13.6 %), step = 23.36 mHz    (303 m%)
    noise: freq = 341.5 mHz   (13.9 %), step = 25.23 mHz    (303 m%)
    noise: freq = 368.7 mHz   (14.2 %), step = 27.24 mHz    (303 m%)
    noise: freq = 398.1 mHz   (14.5 %), step = 29.41 mHz    (303 m%)
    noise: freq = 429.9 mHz   (14.8 %), step = 31.76 mHz    (303 m%)
    noise: freq = 464.2 mHz   (15.2 %), step = 34.29 mHz    (303 m%)
    noise: freq = 501.2 mHz   (15.5 %), step = 37.03 mHz    (303 m%)
    noise: freq = 541.2 mHz   (15.8 %), step = 39.98 mHz    (303 m%)
    noise: freq = 584.3 mHz   (16.1 %), step = 43.17 mHz    (303 m%)
    noise: freq = 631 mHz     (16.4 %), step = 46.62 mHz    (303 m%)
    noise: freq = 681.3 mHz   (16.7 %), step = 50.33 mHz    (303 m%)
    noise: freq = 735.6 mHz     (17 %), step = 54.35 mHz    (303 m%)
    noise: freq = 794.3 mHz   (17.3 %), step = 58.69 mHz    (303 m%)
    noise: freq = 857.7 mHz   (17.6 %), step = 63.37 mHz    (303 m%)
    noise: freq = 926.1 mHz   (17.9 %), step = 68.42 mHz    (303 m%)
    noise: freq = 1 Hz        (18.2 %), step = 73.88 mHz    (303 m%)
    noise: freq = 1.08 Hz     (18.5 %), step = 79.78 mHz    (303 m%)
    noise: freq = 1.166 Hz    (18.8 %), step = 86.14 mHz    (303 m%)
    noise: freq = 1.259 Hz    (19.1 %), step = 93.01 mHz    (303 m%)
    noise: freq = 1.359 Hz    (19.4 %), step = 100.4 mHz    (303 m%)
    noise: freq = 1.468 Hz    (19.7 %), step = 108.4 mHz    (303 m%)
    noise: freq = 1.585 Hz      (20 %), step = 117.1 mHz    (303 m%)
    noise: freq = 1.711 Hz    (20.3 %), step = 126.4 mHz    (303 m%)
    noise: freq = 1.848 Hz    (20.6 %), step = 136.5 mHz    (303 m%)
    noise: freq = 1.995 Hz    (20.9 %), step = 147.4 mHz    (303 m%)
    noise: freq = 2.154 Hz    (21.2 %), step = 159.2 mHz    (303 m%)
    noise: freq = 2.326 Hz    (21.5 %), step = 171.9 mHz    (303 m%)
    noise: freq = 2.512 Hz    (21.8 %), step = 185.6 mHz    (303 m%)
    noise: freq = 2.712 Hz    (22.1 %), step = 200.4 mHz    (303 m%)
    noise: freq = 2.929 Hz    (22.4 %), step = 216.4 mHz    (303 m%)
    noise: freq = 3.162 Hz    (22.7 %), step = 233.6 mHz    (303 m%)
    noise: freq = 3.415 Hz      (23 %), step = 252.3 mHz    (303 m%)
    noise: freq = 3.687 Hz    (23.3 %), step = 272.4 mHz    (303 m%)
    noise: freq = 3.981 Hz    (23.6 %), step = 294.1 mHz    (303 m%)
    noise: freq = 4.299 Hz    (23.9 %), step = 317.6 mHz    (303 m%)
    noise: freq = 4.642 Hz    (24.2 %), step = 342.9 mHz    (303 m%)
    noise: freq = 5.012 Hz    (24.5 %), step = 370.3 mHz    (303 m%)
    noise: freq = 5.412 Hz    (24.8 %), step = 399.8 mHz    (303 m%)
    noise: freq = 5.843 Hz    (25.2 %), step = 431.7 mHz    (303 m%)
    noise: freq = 6.31 Hz     (25.5 %), step = 466.2 mHz    (303 m%)
    noise: freq = 6.813 Hz    (25.8 %), step = 503.3 mHz    (303 m%)
    noise: freq = 7.356 Hz    (26.1 %), step = 543.5 mHz    (303 m%)
    noise: freq = 7.943 Hz    (26.4 %), step = 586.9 mHz    (303 m%)
    noise: freq = 8.577 Hz    (26.7 %), step = 633.7 mHz    (303 m%)
    noise: freq = 9.261 Hz      (27 %), step = 684.2 mHz    (303 m%)
    noise: freq = 10 Hz       (27.3 %), step = 738.8 mHz    (303 m%)
    noise: freq = 10.8 Hz     (27.6 %), step = 797.8 mHz    (303 m%)
    noise: freq = 11.66 Hz    (27.9 %), step = 861.4 mHz    (303 m%)
    noise: freq = 12.59 Hz    (28.2 %), step = 930.1 mHz    (303 m%)
    noise: freq = 13.59 Hz    (28.5 %), step = 1.004 Hz     (303 m%)
    noise: freq = 14.68 Hz    (28.8 %), step = 1.084 Hz     (303 m%)
    noise: freq = 15.85 Hz    (29.1 %), step = 1.171 Hz     (303 m%)
    noise: freq = 17.11 Hz    (29.4 %), step = 1.264 Hz     (303 m%)
    noise: freq = 18.48 Hz    (29.7 %), step = 1.365 Hz     (303 m%)
    noise: freq = 19.95 Hz      (30 %), step = 1.474 Hz     (303 m%)
    noise: freq = 21.54 Hz    (30.3 %), step = 1.592 Hz     (303 m%)
    noise: freq = 23.26 Hz    (30.6 %), step = 1.719 Hz     (303 m%)
    noise: freq = 25.12 Hz    (30.9 %), step = 1.856 Hz     (303 m%)
    noise: freq = 27.12 Hz    (31.2 %), step = 2.004 Hz     (303 m%)
    noise: freq = 29.29 Hz    (31.5 %), step = 2.164 Hz     (303 m%)
    noise: freq = 31.62 Hz    (31.8 %), step = 2.336 Hz     (303 m%)
    noise: freq = 34.15 Hz    (32.1 %), step = 2.523 Hz     (303 m%)
    noise: freq = 36.87 Hz    (32.4 %), step = 2.724 Hz     (303 m%)
    noise: freq = 39.81 Hz    (32.7 %), step = 2.941 Hz     (303 m%)
    noise: freq = 42.99 Hz      (33 %), step = 3.176 Hz     (303 m%)
    noise: freq = 46.42 Hz    (33.3 %), step = 3.429 Hz     (303 m%)
    noise: freq = 50.12 Hz    (33.6 %), step = 3.703 Hz     (303 m%)
    noise: freq = 54.12 Hz    (33.9 %), step = 3.998 Hz     (303 m%)
    noise: freq = 58.43 Hz    (34.2 %), step = 4.317 Hz     (303 m%)
    noise: freq = 63.1 Hz     (34.5 %), step = 4.662 Hz     (303 m%)
    noise: freq = 68.13 Hz    (34.8 %), step = 5.033 Hz     (303 m%)
    noise: freq = 73.56 Hz    (35.2 %), step = 5.435 Hz     (303 m%)
    noise: freq = 79.43 Hz    (35.5 %), step = 5.869 Hz     (303 m%)
    noise: freq = 85.77 Hz    (35.8 %), step = 6.337 Hz     (303 m%)
    noise: freq = 92.61 Hz    (36.1 %), step = 6.842 Hz     (303 m%)
    noise: freq = 100 Hz      (36.4 %), step = 7.388 Hz     (303 m%)
    noise: freq = 108 Hz      (36.7 %), step = 7.978 Hz     (303 m%)
    noise: freq = 116.6 Hz      (37 %), step = 8.614 Hz     (303 m%)
    noise: freq = 125.9 Hz    (37.3 %), step = 9.301 Hz     (303 m%)
    noise: freq = 135.9 Hz    (37.6 %), step = 10.04 Hz     (303 m%)
    noise: freq = 146.8 Hz    (37.9 %), step = 10.84 Hz     (303 m%)
    noise: freq = 158.5 Hz    (38.2 %), step = 11.71 Hz     (303 m%)
    noise: freq = 171.1 Hz    (38.5 %), step = 12.64 Hz     (303 m%)
    noise: freq = 184.8 Hz    (38.8 %), step = 13.65 Hz     (303 m%)
    noise: freq = 199.5 Hz    (39.1 %), step = 14.74 Hz     (303 m%)
    noise: freq = 215.4 Hz    (39.4 %), step = 15.92 Hz     (303 m%)
    noise: freq = 232.6 Hz    (39.7 %), step = 17.19 Hz     (303 m%)
    noise: freq = 251.2 Hz      (40 %), step = 18.56 Hz     (303 m%)
    noise: freq = 271.2 Hz    (40.3 %), step = 20.04 Hz     (303 m%)
    noise: freq = 292.9 Hz    (40.6 %), step = 21.64 Hz     (303 m%)
    noise: freq = 316.2 Hz    (40.9 %), step = 23.36 Hz     (303 m%)
    noise: freq = 341.5 Hz    (41.2 %), step = 25.23 Hz     (303 m%)
    noise: freq = 368.7 Hz    (41.5 %), step = 27.24 Hz     (303 m%)
    noise: freq = 398.1 Hz    (41.8 %), step = 29.41 Hz     (303 m%)
    noise: freq = 429.9 Hz    (42.1 %), step = 31.76 Hz     (303 m%)
    noise: freq = 464.2 Hz    (42.4 %), step = 34.29 Hz     (303 m%)
    noise: freq = 501.2 Hz    (42.7 %), step = 37.03 Hz     (303 m%)
    noise: freq = 541.2 Hz      (43 %), step = 39.98 Hz     (303 m%)
    noise: freq = 584.3 Hz    (43.3 %), step = 43.17 Hz     (303 m%)
    noise: freq = 631 Hz      (43.6 %), step = 46.62 Hz     (303 m%)
    noise: freq = 681.3 Hz    (43.9 %), step = 50.33 Hz     (303 m%)
    noise: freq = 735.6 Hz    (44.2 %), step = 54.35 Hz     (303 m%)
    noise: freq = 794.3 Hz    (44.5 %), step = 58.69 Hz     (303 m%)
    noise: freq = 857.7 Hz    (44.8 %), step = 63.37 Hz     (303 m%)
    noise: freq = 926.1 Hz    (45.2 %), step = 68.42 Hz     (303 m%)
    noise: freq = 1 kHz       (45.5 %), step = 73.88 Hz     (303 m%)
    noise: freq = 1.08 kHz    (45.8 %), step = 79.78 Hz     (303 m%)
    noise: freq = 1.166 kHz   (46.1 %), step = 86.14 Hz     (303 m%)
    noise: freq = 1.259 kHz   (46.4 %), step = 93.01 Hz     (303 m%)
    noise: freq = 1.359 kHz   (46.7 %), step = 100.4 Hz     (303 m%)
    noise: freq = 1.468 kHz     (47 %), step = 108.4 Hz     (303 m%)
    noise: freq = 1.585 kHz   (47.3 %), step = 117.1 Hz     (303 m%)
    noise: freq = 1.711 kHz   (47.6 %), step = 126.4 Hz     (303 m%)
    noise: freq = 1.848 kHz   (47.9 %), step = 136.5 Hz     (303 m%)
    noise: freq = 1.995 kHz   (48.2 %), step = 147.4 Hz     (303 m%)
    noise: freq = 2.154 kHz   (48.5 %), step = 159.2 Hz     (303 m%)
    noise: freq = 2.326 kHz   (48.8 %), step = 171.9 Hz     (303 m%)
    noise: freq = 2.512 kHz   (49.1 %), step = 185.6 Hz     (303 m%)
    noise: freq = 2.712 kHz   (49.4 %), step = 200.4 Hz     (303 m%)
    noise: freq = 2.929 kHz   (49.7 %), step = 216.4 Hz     (303 m%)
    noise: freq = 3.162 kHz     (50 %), step = 233.6 Hz     (303 m%)
    noise: freq = 3.415 kHz   (50.3 %), step = 252.3 Hz     (303 m%)
    noise: freq = 3.687 kHz   (50.6 %), step = 272.4 Hz     (303 m%)
    noise: freq = 3.981 kHz   (50.9 %), step = 294.1 Hz     (303 m%)
    noise: freq = 4.299 kHz   (51.2 %), step = 317.6 Hz     (303 m%)
    noise: freq = 4.642 kHz   (51.5 %), step = 342.9 Hz     (303 m%)
    noise: freq = 5.012 kHz   (51.8 %), step = 370.3 Hz     (303 m%)
    noise: freq = 5.412 kHz   (52.1 %), step = 399.8 Hz     (303 m%)
    noise: freq = 5.843 kHz   (52.4 %), step = 431.7 Hz     (303 m%)
    noise: freq = 6.31 kHz    (52.7 %), step = 466.2 Hz     (303 m%)
    noise: freq = 6.813 kHz     (53 %), step = 503.3 Hz     (303 m%)
    noise: freq = 7.356 kHz   (53.3 %), step = 543.5 Hz     (303 m%)
    noise: freq = 7.943 kHz   (53.6 %), step = 586.9 Hz     (303 m%)
    noise: freq = 8.577 kHz   (53.9 %), step = 633.7 Hz     (303 m%)
    noise: freq = 9.261 kHz   (54.2 %), step = 684.2 Hz     (303 m%)
    noise: freq = 10 kHz      (54.5 %), step = 738.8 Hz     (303 m%)
    noise: freq = 10.8 kHz    (54.8 %), step = 797.8 Hz     (303 m%)
    noise: freq = 11.66 kHz   (55.2 %), step = 861.4 Hz     (303 m%)
    noise: freq = 12.59 kHz   (55.5 %), step = 930.1 Hz     (303 m%)
    noise: freq = 13.59 kHz   (55.8 %), step = 1.004 kHz    (303 m%)
    noise: freq = 14.68 kHz   (56.1 %), step = 1.084 kHz    (303 m%)
    noise: freq = 15.85 kHz   (56.4 %), step = 1.171 kHz    (303 m%)
    noise: freq = 17.11 kHz   (56.7 %), step = 1.264 kHz    (303 m%)
    noise: freq = 18.48 kHz     (57 %), step = 1.365 kHz    (303 m%)
    noise: freq = 19.95 kHz   (57.3 %), step = 1.474 kHz    (303 m%)
    noise: freq = 21.54 kHz   (57.6 %), step = 1.592 kHz    (303 m%)
    noise: freq = 23.26 kHz   (57.9 %), step = 1.719 kHz    (303 m%)
    noise: freq = 25.12 kHz   (58.2 %), step = 1.856 kHz    (303 m%)
    noise: freq = 27.12 kHz   (58.5 %), step = 2.004 kHz    (303 m%)
    noise: freq = 29.29 kHz   (58.8 %), step = 2.164 kHz    (303 m%)
    noise: freq = 31.62 kHz   (59.1 %), step = 2.336 kHz    (303 m%)
    noise: freq = 34.15 kHz   (59.4 %), step = 2.523 kHz    (303 m%)
    noise: freq = 36.87 kHz   (59.7 %), step = 2.724 kHz    (303 m%)
    noise: freq = 39.81 kHz     (60 %), step = 2.941 kHz    (303 m%)
    noise: freq = 42.99 kHz   (60.3 %), step = 3.176 kHz    (303 m%)
    noise: freq = 46.42 kHz   (60.6 %), step = 3.429 kHz    (303 m%)
    noise: freq = 50.12 kHz   (60.9 %), step = 3.703 kHz    (303 m%)
    noise: freq = 54.12 kHz   (61.2 %), step = 3.998 kHz    (303 m%)
    noise: freq = 58.43 kHz   (61.5 %), step = 4.317 kHz    (303 m%)
    noise: freq = 63.1 kHz    (61.8 %), step = 4.662 kHz    (303 m%)
    noise: freq = 68.13 kHz   (62.1 %), step = 5.033 kHz    (303 m%)
    noise: freq = 73.56 kHz   (62.4 %), step = 5.435 kHz    (303 m%)
    noise: freq = 79.43 kHz   (62.7 %), step = 5.869 kHz    (303 m%)
    noise: freq = 85.77 kHz     (63 %), step = 6.337 kHz    (303 m%)
    noise: freq = 92.61 kHz   (63.3 %), step = 6.842 kHz    (303 m%)
    noise: freq = 100 kHz     (63.6 %), step = 7.388 kHz    (303 m%)
    noise: freq = 108 kHz     (63.9 %), step = 7.978 kHz    (303 m%)
    noise: freq = 116.6 kHz   (64.2 %), step = 8.614 kHz    (303 m%)
    noise: freq = 125.9 kHz   (64.5 %), step = 9.301 kHz    (303 m%)
    noise: freq = 135.9 kHz   (64.8 %), step = 10.04 kHz    (303 m%)
    noise: freq = 146.8 kHz   (65.2 %), step = 10.84 kHz    (303 m%)
    noise: freq = 158.5 kHz   (65.5 %), step = 11.71 kHz    (303 m%)
    noise: freq = 171.1 kHz   (65.8 %), step = 12.64 kHz    (303 m%)
    noise: freq = 184.8 kHz   (66.1 %), step = 13.65 kHz    (303 m%)
    noise: freq = 199.5 kHz   (66.4 %), step = 14.74 kHz    (303 m%)
    noise: freq = 215.4 kHz   (66.7 %), step = 15.92 kHz    (303 m%)
    noise: freq = 232.6 kHz     (67 %), step = 17.19 kHz    (303 m%)
    noise: freq = 251.2 kHz   (67.3 %), step = 18.56 kHz    (303 m%)
    noise: freq = 271.2 kHz   (67.6 %), step = 20.04 kHz    (303 m%)
    noise: freq = 292.9 kHz   (67.9 %), step = 21.64 kHz    (303 m%)
    noise: freq = 316.2 kHz   (68.2 %), step = 23.36 kHz    (303 m%)
    noise: freq = 341.5 kHz   (68.5 %), step = 25.23 kHz    (303 m%)
    noise: freq = 368.7 kHz   (68.8 %), step = 27.24 kHz    (303 m%)
    noise: freq = 398.1 kHz   (69.1 %), step = 29.41 kHz    (303 m%)
    noise: freq = 429.9 kHz   (69.4 %), step = 31.76 kHz    (303 m%)
    noise: freq = 464.2 kHz   (69.7 %), step = 34.29 kHz    (303 m%)
    noise: freq = 501.2 kHz     (70 %), step = 37.03 kHz    (303 m%)
    noise: freq = 541.2 kHz   (70.3 %), step = 39.98 kHz    (303 m%)
    noise: freq = 584.3 kHz   (70.6 %), step = 43.17 kHz    (303 m%)
    noise: freq = 631 kHz     (70.9 %), step = 46.62 kHz    (303 m%)
    noise: freq = 681.3 kHz   (71.2 %), step = 50.33 kHz    (303 m%)
    noise: freq = 735.6 kHz   (71.5 %), step = 54.35 kHz    (303 m%)
    noise: freq = 794.3 kHz   (71.8 %), step = 58.69 kHz    (303 m%)
    noise: freq = 857.7 kHz   (72.1 %), step = 63.37 kHz    (303 m%)
    noise: freq = 926.1 kHz   (72.4 %), step = 68.42 kHz    (303 m%)
    noise: freq = 1 MHz       (72.7 %), step = 73.88 kHz    (303 m%)
    noise: freq = 1.08 MHz      (73 %), step = 79.78 kHz    (303 m%)
    noise: freq = 1.166 MHz   (73.3 %), step = 86.14 kHz    (303 m%)
    noise: freq = 1.259 MHz   (73.6 %), step = 93.01 kHz    (303 m%)
    noise: freq = 1.359 MHz   (73.9 %), step = 100.4 kHz    (303 m%)
    noise: freq = 1.468 MHz   (74.2 %), step = 108.4 kHz    (303 m%)
    noise: freq = 1.585 MHz   (74.5 %), step = 117.1 kHz    (303 m%)
    noise: freq = 1.711 MHz   (74.8 %), step = 126.4 kHz    (303 m%)
    noise: freq = 1.848 MHz   (75.2 %), step = 136.5 kHz    (303 m%)
    noise: freq = 1.995 MHz   (75.5 %), step = 147.4 kHz    (303 m%)
    noise: freq = 2.154 MHz   (75.8 %), step = 159.2 kHz    (303 m%)
    noise: freq = 2.326 MHz   (76.1 %), step = 171.9 kHz    (303 m%)
    noise: freq = 2.512 MHz   (76.4 %), step = 185.6 kHz    (303 m%)
    noise: freq = 2.712 MHz   (76.7 %), step = 200.4 kHz    (303 m%)
    noise: freq = 2.929 MHz     (77 %), step = 216.4 kHz    (303 m%)
    noise: freq = 3.162 MHz   (77.3 %), step = 233.6 kHz    (303 m%)
    noise: freq = 3.415 MHz   (77.6 %), step = 252.3 kHz    (303 m%)
    noise: freq = 3.687 MHz   (77.9 %), step = 272.4 kHz    (303 m%)
    noise: freq = 3.981 MHz   (78.2 %), step = 294.1 kHz    (303 m%)
    noise: freq = 4.299 MHz   (78.5 %), step = 317.6 kHz    (303 m%)
    noise: freq = 4.642 MHz   (78.8 %), step = 342.9 kHz    (303 m%)
    noise: freq = 5.012 MHz   (79.1 %), step = 370.3 kHz    (303 m%)
    noise: freq = 5.412 MHz   (79.4 %), step = 399.8 kHz    (303 m%)
    noise: freq = 5.843 MHz   (79.7 %), step = 431.7 kHz    (303 m%)
    noise: freq = 6.31 MHz      (80 %), step = 466.2 kHz    (303 m%)
    noise: freq = 6.813 MHz   (80.3 %), step = 503.3 kHz    (303 m%)
    noise: freq = 7.356 MHz   (80.6 %), step = 543.5 kHz    (303 m%)
    noise: freq = 7.943 MHz   (80.9 %), step = 586.9 kHz    (303 m%)
    noise: freq = 8.577 MHz   (81.2 %), step = 633.7 kHz    (303 m%)
    noise: freq = 9.261 MHz   (81.5 %), step = 684.2 kHz    (303 m%)
    noise: freq = 10 MHz      (81.8 %), step = 738.8 kHz    (303 m%)
    noise: freq = 10.8 MHz    (82.1 %), step = 797.8 kHz    (303 m%)
    noise: freq = 11.66 MHz   (82.4 %), step = 861.4 kHz    (303 m%)
    noise: freq = 12.59 MHz   (82.7 %), step = 930.1 kHz    (303 m%)
    noise: freq = 13.59 MHz     (83 %), step = 1.004 MHz    (303 m%)
    noise: freq = 14.68 MHz   (83.3 %), step = 1.084 MHz    (303 m%)
    noise: freq = 15.85 MHz   (83.6 %), step = 1.171 MHz    (303 m%)
    noise: freq = 17.11 MHz   (83.9 %), step = 1.264 MHz    (303 m%)
    noise: freq = 18.48 MHz   (84.2 %), step = 1.365 MHz    (303 m%)
    noise: freq = 19.95 MHz   (84.5 %), step = 1.474 MHz    (303 m%)
    noise: freq = 21.54 MHz   (84.8 %), step = 1.592 MHz    (303 m%)
    noise: freq = 23.26 MHz   (85.2 %), step = 1.719 MHz    (303 m%)
    noise: freq = 25.12 MHz   (85.5 %), step = 1.856 MHz    (303 m%)
    noise: freq = 27.12 MHz   (85.8 %), step = 2.004 MHz    (303 m%)
    noise: freq = 29.29 MHz   (86.1 %), step = 2.164 MHz    (303 m%)
    noise: freq = 31.62 MHz   (86.4 %), step = 2.336 MHz    (303 m%)
    noise: freq = 34.15 MHz   (86.7 %), step = 2.523 MHz    (303 m%)
    noise: freq = 36.87 MHz     (87 %), step = 2.724 MHz    (303 m%)
    noise: freq = 39.81 MHz   (87.3 %), step = 2.941 MHz    (303 m%)
    noise: freq = 42.99 MHz   (87.6 %), step = 3.176 MHz    (303 m%)
    noise: freq = 46.42 MHz   (87.9 %), step = 3.429 MHz    (303 m%)
    noise: freq = 50.12 MHz   (88.2 %), step = 3.703 MHz    (303 m%)
    noise: freq = 54.12 MHz   (88.5 %), step = 3.998 MHz    (303 m%)
    noise: freq = 58.43 MHz   (88.8 %), step = 4.317 MHz    (303 m%)
    noise: freq = 63.1 MHz    (89.1 %), step = 4.662 MHz    (303 m%)
    noise: freq = 68.13 MHz   (89.4 %), step = 5.033 MHz    (303 m%)
    noise: freq = 73.56 MHz   (89.7 %), step = 5.435 MHz    (303 m%)
    noise: freq = 79.43 MHz     (90 %), step = 5.869 MHz    (303 m%)
    noise: freq = 85.77 MHz   (90.3 %), step = 6.337 MHz    (303 m%)
    noise: freq = 92.61 MHz   (90.6 %), step = 6.842 MHz    (303 m%)
    noise: freq = 100 MHz     (90.9 %), step = 7.388 MHz    (303 m%)
    noise: freq = 108 MHz     (91.2 %), step = 7.978 MHz    (303 m%)
    noise: freq = 116.6 MHz   (91.5 %), step = 8.614 MHz    (303 m%)
    noise: freq = 125.9 MHz   (91.8 %), step = 9.301 MHz    (303 m%)
    noise: freq = 135.9 MHz   (92.1 %), step = 10.04 MHz    (303 m%)
    noise: freq = 146.8 MHz   (92.4 %), step = 10.84 MHz    (303 m%)
    noise: freq = 158.5 MHz   (92.7 %), step = 11.71 MHz    (303 m%)
    noise: freq = 171.1 MHz     (93 %), step = 12.64 MHz    (303 m%)
    noise: freq = 184.8 MHz   (93.3 %), step = 13.65 MHz    (303 m%)
    noise: freq = 199.5 MHz   (93.6 %), step = 14.74 MHz    (303 m%)
    noise: freq = 215.4 MHz   (93.9 %), step = 15.92 MHz    (303 m%)
    noise: freq = 232.6 MHz   (94.2 %), step = 17.19 MHz    (303 m%)
    noise: freq = 251.2 MHz   (94.5 %), step = 18.56 MHz    (303 m%)
    noise: freq = 271.2 MHz   (94.8 %), step = 20.04 MHz    (303 m%)
    noise: freq = 292.9 MHz   (95.2 %), step = 21.64 MHz    (303 m%)
    noise: freq = 316.2 MHz   (95.5 %), step = 23.36 MHz    (303 m%)
    noise: freq = 341.5 MHz   (95.8 %), step = 25.23 MHz    (303 m%)
    noise: freq = 368.7 MHz   (96.1 %), step = 27.24 MHz    (303 m%)
    noise: freq = 398.1 MHz   (96.4 %), step = 29.41 MHz    (303 m%)
    noise: freq = 429.9 MHz   (96.7 %), step = 31.76 MHz    (303 m%)
    noise: freq = 464.2 MHz     (97 %), step = 34.29 MHz    (303 m%)
    noise: freq = 501.2 MHz   (97.3 %), step = 37.03 MHz    (303 m%)
    noise: freq = 541.2 MHz   (97.6 %), step = 39.98 MHz    (303 m%)
    noise: freq = 584.3 MHz   (97.9 %), step = 43.17 MHz    (303 m%)
    noise: freq = 631 MHz     (98.2 %), step = 46.62 MHz    (303 m%)
    noise: freq = 681.3 MHz   (98.5 %), step = 50.33 MHz    (303 m%)
    noise: freq = 735.6 MHz   (98.8 %), step = 54.35 MHz    (303 m%)
    noise: freq = 794.3 MHz   (99.1 %), step = 58.69 MHz    (303 m%)
    noise: freq = 857.7 MHz   (99.4 %), step = 63.37 MHz    (303 m%)
    noise: freq = 926.1 MHz   (99.7 %), step = 68.42 MHz    (303 m%)
    noise: freq = 1 GHz        (100 %), step = 73.88 MHz    (303 m%)
Accumulated DC solution time =            220.06 us.
Intrinsic noise analysis time =              104.718 ms.
Total time required for noise analysis `noise': CPU = 8.618 ms, elapsed = 104.992 ms, util. = 8.21%.
Time accumulated: CPU = 383.597 ms, elapsed = 844.473 ms.
Peak resident memory used = 220 Mbytes.


******************
DC Analysis `dcOp'
******************

Opening the PSF file ../psf/dcOp.dc ...
Important parameter values:
    reltol = 1e-03
    abstol(V) = 1 uV
    abstol(I) = 1 pA
    temp = 27 C
    tnom = 27 C
    tempeffects = all
    gmindc = 1 pS
    rabsshort = 1 mOhm

Maximum value achieved for any signal of each quantity: 
V: V(net2) = 900 mV
I: I(E0:p) = 347.3 pA
Convergence achieved in 2 iterations.
DC simulation time: CPU = 1.015 ms, elapsed = 5.19991 ms.
Total time required for dc analysis `dcOp': CPU = 1.068 ms, elapsed = 5.26214 ms, util. = 20.3%.
Time accumulated: CPU = 384.977 ms, elapsed = 853.821 ms.
Peak resident memory used = 220 Mbytes.

dcOpInfo: writing operating point information to rawfile.

Opening the PSF file ../psf/dcOpInfo.info ...
modelParameter: writing model parameter values to rawfile.

Opening the PSF file ../psf/modelParameter.info ...
element: writing instance parameter values to rawfile.

Opening the PSF file ../psf/element.info ...
outputParameter: writing output parameter values to rawfile.

Opening the PSF file ../psf/outputParameter.info ...
designParamVals: writing netlist parameters to rawfile.

Opening the PSFASCII file ../psf/designParamVals.info ...
primitives: writing primitives to rawfile.

Opening the PSFASCII file ../psf/primitives.info.primitives ...
subckts: writing subcircuits to rawfile.

Opening the PSFASCII file ../psf/subckts.info.subckts ...
Licensing Information:
Lic Summary:
[10:41:15.424458] Cdslmd servers:3000@lic08.ug.kth.se
[10:41:15.948802] Feature usage summary:
[10:41:15.948803] Virtuoso_Multi_mode_Simulation


Aggregate audit (10:41:15 AM, Wed Nov 12, 2025):
Time used: CPU = 399 ms, elapsed = 919 ms, util. = 43.4%.
Time spent in licensing: elapsed = 296 ms, percentage of total = 32.2%.
Peak memory used = 222 Mbytes.
Simulation started at: 10:41:15 AM, Wed Nov 12, 2025, ended at: 10:41:15 AM, Wed Nov 12, 2025, with elapsed time (wall clock): 919 ms.
spectre completes with 0 errors, 0 warnings, and 5 notices.


********* LOG ENDS **************
**                             **
