
Spectre (R) Circuit Simulator
Version 24.1.0.288.isr5 64bit -- 3 Apr 2025
Copyright (C) 1989-2025 Cadence Design Systems, Inc. All rights reserved worldwide. Cadence and Spectre are registered trademarks of Cadence Design Systems, Inc. All others are the property of their respective holders.

Includes RSA BSAFE(R) Cryptographic or Security Protocol Software from RSA Security, Inc.

User: saul   Host: edatools   HostID: 11AC0200   PID: 16380
Memory  available: 22.2908 GB  physical: 27.3104 GB
Linux   : Rocky Linux release 8.10 (Green Obsidian)
CPU Type: 11th Gen Intel(R) Core(TM) i7-11700K @ 3.60GHz
All processors running at 3600.0 MHz
        Socket: Processors
        0:       0,  1,  2,  3,  4,  5,  6,  7,  8,  9
                10, 11, 12, 13, 14, 15
        
System load averages (1min, 5min, 15min) : 12.8 %, 8.2 %, 4.8 %
HPC is enabled


Simulating `input.scs' on edatools at 4:59:45 PM, Sun Nov 9, 2025 (process id: 16380).
Current working directory: /home/saul/projects/FIL3601/Sim/LAB1/GM_ID/adexl/results/data/Ocean.41/1/DAY2:GM_ID:1/netlist
Command line:
    /opt/tools/cadence/installs/SPECTRE241/tools/bin/spectre -64  \
        input.scs +escchars +log ../psf/spectre.out -format psfxl -raw  \
        ../psf +aps +mt +lqtimeout 900 -maxw 5 -maxn 5 -env ade  \
        -ahdllibdir  \
        /home/saul/projects/FIL3601/Sim/LAB1/GM_ID/adexl/results/data/Ocean.41/sharedData/Job6/ahdl/input.ahdlSimDB  \
        +logstatus  \
        +adespetkn=0001089D13A302B663E41FB550AF0DF415A679A322D5069144BF588C12F604E07EF416DC01A319B562BB63D364AF22E645A34AD101A821B641DD6FDE6CC04F9243EF79D15D9175FF34980CBD6B9974D3349877CA11EF18A05BF743E42ECB42E00EAD79D129F874D3349879D118F874D3349810C1D085BCAE5D88000036B2

Simulation Id: V5L5FEuEUeOyaxww
Licensing Information:
[16:59:46.188921] Configured Lic search path (24.01-s002): 3000@lic08.ug.kth.se

Licensing Information:
[16:59:46.097664] Periodic Lic check successful

Loading /opt/tools/cadence/installs/SPECTRE241/tools.lnx86/cmi/lib/64bit/5.0/libinfineon_sh.so ...
Loading /opt/tools/cadence/installs/SPECTRE241/tools.lnx86/cmi/lib/64bit/5.0/libphilips_I_sh.so ...
Loading /opt/tools/cadence/installs/SPECTRE241/tools.lnx86/cmi/lib/64bit/5.0/libphilips_sh.so ...
Loading /opt/tools/cadence/installs/SPECTRE241/tools.lnx86/cmi/lib/64bit/5.0/libsparam_sh.so ...
Loading /opt/tools/cadence/installs/SPECTRE241/tools.lnx86/cmi/lib/64bit/5.0/libstmodels_sh.so ...
Reading file:  /home/saul/projects/FIL3601/Sim/LAB1/GM_ID/adexl/results/data/Ocean.41/1/DAY2:GM_ID:1/netlist/input.scs
Reading file:  /opt/tools/cadence/installs/SPECTRE241/tools.lnx86/spectre/etc/configs/spectre.cfg
Reading file:  /opt/pdk/xfab/XKIT/xh018/cadence/v10_0/spectre/v10_0_2/lpmos/config.scs
Reading file:  /opt/pdk/xfab/XKIT/xh018/cadence/v10_0/spectre/v10_0_2/lpmos/param.scs
Reading file:  /opt/pdk/xfab/XKIT/xh018/cadence/v10_0/spectre/v10_0_2/lpmos/bip.scs
Reading file:  /opt/pdk/xfab/XKIT/xh018/cadence/v10_0/spectre/v10_0_2/lpmos/models/bip/tm_bip.scs
Reading file:  /opt/pdk/xfab/XKIT/xh018/cadence/v10_0/spectre/v10_0_2/lpmos/models/bip/qpva.scs
Reading file:  /opt/pdk/xfab/XKIT/xh018/cadence/v10_0/spectre/v10_0_2/lpmos/models/bip/qpvb.scs
Reading file:  /opt/pdk/xfab/XKIT/xh018/cadence/v10_0/spectre/v10_0_2/lpmos/models/bip/qpvc.scs
Reading file:  /opt/pdk/xfab/XKIT/xh018/cadence/v10_0/spectre/v10_0_2/lpmos/models/bip/qpva3.scs
Reading file:  /opt/pdk/xfab/XKIT/xh018/cadence/v10_0/spectre/v10_0_2/lpmos/models/bip/qpvb3.scs
Reading file:  /opt/pdk/xfab/XKIT/xh018/cadence/v10_0/spectre/v10_0_2/lpmos/models/bip/qpvc3.scs
Reading file:  /opt/pdk/xfab/XKIT/xh018/cadence/v10_0/spectre/v10_0_2/lpmos/models/bip/qnva.scs
Reading file:  /opt/pdk/xfab/XKIT/xh018/cadence/v10_0/spectre/v10_0_2/lpmos/models/bip/qnvb.scs
Reading file:  /opt/pdk/xfab/XKIT/xh018/cadence/v10_0/spectre/v10_0_2/lpmos/models/bip/qnvba.scs
Reading file:  /opt/pdk/xfab/XKIT/xh018/cadence/v10_0/spectre/v10_0_2/lpmos/models/bip/qnvbb.scs
Reading file:  /opt/pdk/xfab/XKIT/xh018/cadence/v10_0/spectre/v10_0_2/lpmos/models/bip/qnvc.scs
Reading file:  /opt/pdk/xfab/XKIT/xh018/cadence/v10_0/spectre/v10_0_2/lpmos/models/bip/qnvca.scs
Reading file:  /opt/pdk/xfab/XKIT/xh018/cadence/v10_0/spectre/v10_0_2/lpmos/models/bip/qnvcb.scs
Reading file:  /opt/pdk/xfab/XKIT/xh018/cadence/v10_0/spectre/v10_0_2/lpmos/models/bip/qpvhscr.scs
Reading file:  /opt/pdk/xfab/XKIT/xh018/cadence/v10_0/spectre/v10_0_2/lpmos/models/bip/qpvascr.scs
Reading file:  /opt/pdk/xfab/XKIT/xh018/cadence/v10_0/spectre/v10_0_2/lpmos/models/bip/qpvhbscr.scs
Reading file:  /opt/pdk/xfab/XKIT/xh018/cadence/v10_0/spectre/v10_0_2/lpmos/models/bip/qpv_pa.scs
Reading file:  /opt/pdk/xfab/XKIT/xh018/cadence/v10_0/spectre/v10_0_2/lpmos/models/bip/qpv_pb.scs
Reading file:  /opt/pdk/xfab/XKIT/xh018/cadence/v10_0/spectre/v10_0_2/lpmos/models/bip/qpv_pc.scs
Reading file:  /opt/pdk/xfab/XKIT/xh018/cadence/v10_0/spectre/v10_0_2/lpmos/models/bip/qpv_pd.scs
Reading file:  /opt/pdk/xfab/XKIT/xh018/cadence/v10_0/spectre/v10_0_2/lpmos/models/bip/qpv_pe.scs
Reading file:  /opt/pdk/xfab/XKIT/xh018/cadence/v10_0/spectre/v10_0_2/lpmos/models/bip/qpv_pf.scs
Reading file:  /opt/pdk/xfab/XKIT/xh018/cadence/v10_0/spectre/v10_0_2/lpmos/models/bip/qpl_pa.scs
Reading file:  /opt/pdk/xfab/XKIT/xh018/cadence/v10_0/spectre/v10_0_2/lpmos/models/bip/qpl_pb.scs
Reading file:  /opt/pdk/xfab/XKIT/xh018/cadence/v10_0/spectre/v10_0_2/lpmos/models/bip/qpl_pc.scs
Reading file:  /opt/pdk/xfab/XKIT/xh018/cadence/v10_0/spectre/v10_0_2/lpmos/models/bip/qpl_pd.scs
Reading file:  /opt/pdk/xfab/XKIT/xh018/cadence/v10_0/spectre/v10_0_2/lpmos/models/bip/qpl_pe.scs
Reading file:  /opt/pdk/xfab/XKIT/xh018/cadence/v10_0/spectre/v10_0_2/lpmos/models/bip/qpl_pf.scs
Reading file:  /opt/pdk/xfab/XKIT/xh018/cadence/v10_0/spectre/v10_0_2/lpmos/models/bip/qnl_pa.scs
Reading file:  /opt/pdk/xfab/XKIT/xh018/cadence/v10_0/spectre/v10_0_2/lpmos/models/bip/qnl_pb.scs
Reading file:  /opt/pdk/xfab/XKIT/xh018/cadence/v10_0/spectre/v10_0_2/lpmos/models/bip/qnl_pc.scs
Reading file:  /opt/pdk/xfab/XKIT/xh018/cadence/v10_0/spectre/v10_0_2/lpmos/models/bip/qnl_pd.scs
Reading file:  /opt/pdk/xfab/XKIT/xh018/cadence/v10_0/spectre/v10_0_2/lpmos/models/bip/qnl_pe.scs
Reading file:  /opt/pdk/xfab/XKIT/xh018/cadence/v10_0/spectre/v10_0_2/lpmos/models/bip/qnl_pf.scs
Reading file:  /opt/pdk/xfab/XKIT/xh018/cadence/v10_0/spectre/v10_0_2/lpmos/cap.scs
Reading file:  /opt/pdk/xfab/XKIT/xh018/cadence/v10_0/spectre/v10_0_2/lpmos/models/cap/tm_cap.scs
Reading file:  /opt/pdk/xfab/XKIT/xh018/cadence/v10_0/spectre/v10_0_2/lpmos/models/cap/csandwt3.scs
Reading file:  /opt/pdk/xfab/XKIT/xh018/cadence/v10_0/spectre/v10_0_2/lpmos/models/cap/csandwt4.scs
Reading file:  /opt/pdk/xfab/XKIT/xh018/cadence/v10_0/spectre/v10_0_2/lpmos/models/cap/csandwt5.scs
Reading file:  /opt/pdk/xfab/XKIT/xh018/cadence/v10_0/spectre/v10_0_2/lpmos/models/cap/csf2p.scs
Reading file:  /opt/pdk/xfab/XKIT/xh018/cadence/v10_0/spectre/v10_0_2/lpmos/models/cap/csf3p.scs
Reading file:  /opt/pdk/xfab/XKIT/xh018/cadence/v10_0/spectre/v10_0_2/lpmos/models/cap/csf3.scs
Reading file:  /opt/pdk/xfab/XKIT/xh018/cadence/v10_0/spectre/v10_0_2/lpmos/models/cap/csf4.scs
Reading file:  /opt/pdk/xfab/XKIT/xh018/cadence/v10_0/spectre/v10_0_2/lpmos/models/cap/csf5.scs
Reading file:  /opt/pdk/xfab/XKIT/xh018/cadence/v10_0/spectre/v10_0_2/lpmos/models/cap/csft4.scs
Reading file:  /opt/pdk/xfab/XKIT/xh018/cadence/v10_0/spectre/v10_0_2/lpmos/models/cap/csft5.scs
Reading file:  /opt/pdk/xfab/XKIT/xh018/cadence/v10_0/spectre/v10_0_2/lpmos/models/cap/csft6.scs
Reading file:  /opt/pdk/xfab/XKIT/xh018/cadence/v10_0/spectre/v10_0_2/lpmos/models/cap/csf3a.scs
Reading file:  /opt/pdk/xfab/XKIT/xh018/cadence/v10_0/spectre/v10_0_2/lpmos/models/cap/csf4a.scs
Reading file:  /opt/pdk/xfab/XKIT/xh018/cadence/v10_0/spectre/v10_0_2/lpmos/models/cap/csf5a.scs
Reading file:  /opt/pdk/xfab/XKIT/xh018/cadence/v10_0/spectre/v10_0_2/lpmos/models/cap/csft4a.scs
Reading file:  /opt/pdk/xfab/XKIT/xh018/cadence/v10_0/spectre/v10_0_2/lpmos/models/cap/csft5a.scs
Reading file:  /opt/pdk/xfab/XKIT/xh018/cadence/v10_0/spectre/v10_0_2/lpmos/models/cap/csft6a.scs
Reading file:  /opt/pdk/xfab/XKIT/xh018/cadence/v10_0/spectre/v10_0_2/lpmos/models/cap/cif3a.scs
Reading file:  /opt/pdk/xfab/XKIT/xh018/cadence/v10_0/spectre/v10_0_2/lpmos/models/cap/cif4a.scs
Reading file:  /opt/pdk/xfab/XKIT/xh018/cadence/v10_0/spectre/v10_0_2/lpmos/models/cap/cif5a.scs
Reading file:  /opt/pdk/xfab/XKIT/xh018/cadence/v10_0/spectre/v10_0_2/lpmos/models/cap/cift4a.scs
Reading file:  /opt/pdk/xfab/XKIT/xh018/cadence/v10_0/spectre/v10_0_2/lpmos/models/cap/cift5a.scs
Reading file:  /opt/pdk/xfab/XKIT/xh018/cadence/v10_0/spectre/v10_0_2/lpmos/models/cap/cift6a.scs
Reading file:  /opt/pdk/xfab/XKIT/xh018/cadence/v10_0/spectre/v10_0_2/lpmos/models/cap/cmm3.scs
Reading file:  /opt/pdk/xfab/XKIT/xh018/cadence/v10_0/spectre/v10_0_2/lpmos/models/cap/cmm4t.scs
Reading file:  /opt/pdk/xfab/XKIT/xh018/cadence/v10_0/spectre/v10_0_2/lpmos/models/cap/cmm4.scs
Reading file:  /opt/pdk/xfab/XKIT/xh018/cadence/v10_0/spectre/v10_0_2/lpmos/models/cap/cmm5t.scs
Reading file:  /opt/pdk/xfab/XKIT/xh018/cadence/v10_0/spectre/v10_0_2/lpmos/models/cap/cmm6t.scs
Reading file:  /opt/pdk/xfab/XKIT/xh018/cadence/v10_0/spectre/v10_0_2/lpmos/models/cap/cdmm4.scs
Reading file:  /opt/pdk/xfab/XKIT/xh018/cadence/v10_0/spectre/v10_0_2/lpmos/models/cap/cdmm4t.scs
Reading file:  /opt/pdk/xfab/XKIT/xh018/cadence/v10_0/spectre/v10_0_2/lpmos/models/cap/ctmm5.scs
Reading file:  /opt/pdk/xfab/XKIT/xh018/cadence/v10_0/spectre/v10_0_2/lpmos/models/cap/ctmm5t.scs
Reading file:  /opt/pdk/xfab/XKIT/xh018/cadence/v10_0/spectre/v10_0_2/lpmos/models/cap/cmmh3.scs
Reading file:  /opt/pdk/xfab/XKIT/xh018/cadence/v10_0/spectre/v10_0_2/lpmos/models/cap/cmmh4t.scs
Reading file:  /opt/pdk/xfab/XKIT/xh018/cadence/v10_0/spectre/v10_0_2/lpmos/models/cap/cmmh4.scs
Reading file:  /opt/pdk/xfab/XKIT/xh018/cadence/v10_0/spectre/v10_0_2/lpmos/models/cap/cmmh5t.scs
Reading file:  /opt/pdk/xfab/XKIT/xh018/cadence/v10_0/spectre/v10_0_2/lpmos/models/cap/cmmh6t.scs
Reading file:  /opt/pdk/xfab/XKIT/xh018/cadence/v10_0/spectre/v10_0_2/lpmos/models/cap/cdmmh4.scs
Reading file:  /opt/pdk/xfab/XKIT/xh018/cadence/v10_0/spectre/v10_0_2/lpmos/models/cap/cdmmh4t.scs
Reading file:  /opt/pdk/xfab/XKIT/xh018/cadence/v10_0/spectre/v10_0_2/lpmos/models/cap/ctmmh5.scs
Reading file:  /opt/pdk/xfab/XKIT/xh018/cadence/v10_0/spectre/v10_0_2/lpmos/models/cap/ctmmh5t.scs
Reading file:  /opt/pdk/xfab/XKIT/xh018/cadence/v10_0/spectre/v10_0_2/lpmos/models/cap/mosvc.scs
Reading file:  /opt/pdk/xfab/XKIT/xh018/cadence/v10_0/spectre/v10_0_2/lpmos/models/cap/mosvc_pmos.scs
Reading file:  /opt/pdk/xfab/XKIT/xh018/cadence/v10_0/spectre/v10_0_2/lpmos/models/cap/mosvci.scs
Reading file:  /opt/pdk/xfab/XKIT/xh018/cadence/v10_0/spectre/v10_0_2/lpmos/models/cap/mosvci_nmos.scs
Reading file:  /opt/pdk/xfab/XKIT/xh018/cadence/v10_0/spectre/v10_0_2/lpmos/models/cap/mosvci_m.scs
Reading file:  /opt/pdk/xfab/XKIT/xh018/cadence/v10_0/spectre/v10_0_2/lpmos/models/cap/mosvc3.scs
Reading file:  /opt/pdk/xfab/XKIT/xh018/cadence/v10_0/spectre/v10_0_2/lpmos/models/cap/mosvc3_pmos.scs
Reading file:  /opt/pdk/xfab/XKIT/xh018/cadence/v10_0/spectre/v10_0_2/lpmos/models/cap/mosvc3i.scs
Reading file:  /opt/pdk/xfab/XKIT/xh018/cadence/v10_0/spectre/v10_0_2/lpmos/models/cap/mosvc3i_nmos.scs
Reading file:  /opt/pdk/xfab/XKIT/xh018/cadence/v10_0/spectre/v10_0_2/lpmos/models/cap/mosvc3i_m.scs
Reading file:  /opt/pdk/xfab/XKIT/xh018/cadence/v10_0/spectre/v10_0_2/lpmos/models/cap/cpod.scs
Reading file:  /opt/pdk/xfab/XKIT/xh018/cadence/v10_0/spectre/v10_0_2/lpmos/models/cap/cpod_i.scs
Reading file:  /opt/pdk/xfab/XKIT/xh018/cadence/v10_0/spectre/v10_0_2/lpmos/models/cap/cpodhv.scs
Reading file:  /opt/pdk/xfab/XKIT/xh018/cadence/v10_0/spectre/v10_0_2/lpmos/models/cap/cpodhv_i.scs
Reading file:  /opt/pdk/xfab/XKIT/xh018/cadence/v10_0/spectre/v10_0_2/lpmos/models/cap/cp1sub.scs
Reading file:  /opt/pdk/xfab/XKIT/xh018/cadence/v10_0/spectre/v10_0_2/lpmos/models/cap/cp1suba.scs
Reading file:  /opt/pdk/xfab/XKIT/xh018/cadence/v10_0/spectre/v10_0_2/lpmos/models/cap/cp1subp.scs
Reading file:  /opt/pdk/xfab/XKIT/xh018/cadence/v10_0/spectre/v10_0_2/lpmos/models/cap/tag_25v.scs
Reading file:  /opt/pdk/xfab/XKIT/xh018/cadence/v10_0/spectre/v10_0_2/lpmos/models/cap/tag_60v.scs
Reading file:  /opt/pdk/xfab/XKIT/xh018/cadence/v10_0/spectre/v10_0_2/lpmos/dio.scs
Reading file:  /opt/pdk/xfab/XKIT/xh018/cadence/v10_0/spectre/v10_0_2/lpmos/models/dio/tm_dio.scs
Reading file:  /opt/pdk/xfab/XKIT/xh018/cadence/v10_0/spectre/v10_0_2/lpmos/models/dio/dn.scs
Reading file:  /opt/pdk/xfab/XKIT/xh018/cadence/v10_0/spectre/v10_0_2/lpmos/models/dio/dp.scs
Reading file:  /opt/pdk/xfab/XKIT/xh018/cadence/v10_0/spectre/v10_0_2/lpmos/models/dio/dnw.scs
Reading file:  /opt/pdk/xfab/XKIT/xh018/cadence/v10_0/spectre/v10_0_2/lpmos/models/dio/dn3.scs
Reading file:  /opt/pdk/xfab/XKIT/xh018/cadence/v10_0/spectre/v10_0_2/lpmos/models/dio/dnn3.scs
Reading file:  /opt/pdk/xfab/XKIT/xh018/cadence/v10_0/spectre/v10_0_2/lpmos/models/dio/dp3.scs
Reading file:  /opt/pdk/xfab/XKIT/xh018/cadence/v10_0/spectre/v10_0_2/lpmos/models/dio/dnw3.scs
Reading file:  /opt/pdk/xfab/XKIT/xh018/cadence/v10_0/spectre/v10_0_2/lpmos/models/dio/ddnwmv.scs
Reading file:  /opt/pdk/xfab/XKIT/xh018/cadence/v10_0/spectre/v10_0_2/lpmos/models/dio/dpdnwmv.scs
Reading file:  /opt/pdk/xfab/XKIT/xh018/cadence/v10_0/spectre/v10_0_2/lpmos/models/dio/dipdnwmv.scs
Reading file:  /opt/pdk/xfab/XKIT/xh018/cadence/v10_0/spectre/v10_0_2/lpmos/models/dio/ddnw.scs
Reading file:  /opt/pdk/xfab/XKIT/xh018/cadence/v10_0/spectre/v10_0_2/lpmos/models/dio/ddnwa.scs
Reading file:  /opt/pdk/xfab/XKIT/xh018/cadence/v10_0/spectre/v10_0_2/lpmos/models/dio/dpdnw.scs
Reading file:  /opt/pdk/xfab/XKIT/xh018/cadence/v10_0/spectre/v10_0_2/lpmos/models/dio/dipdnw.scs
Reading file:  /opt/pdk/xfab/XKIT/xh018/cadence/v10_0/spectre/v10_0_2/lpmos/models/dio/dnhpw.scs
Reading file:  /opt/pdk/xfab/XKIT/xh018/cadence/v10_0/spectre/v10_0_2/lpmos/models/dio/dnhpwa.scs
Reading file:  /opt/pdk/xfab/XKIT/xh018/cadence/v10_0/spectre/v10_0_2/lpmos/models/dio/dphnw.scs
Reading file:  /opt/pdk/xfab/XKIT/xh018/cadence/v10_0/spectre/v10_0_2/lpmos/models/dio/dphnwa.scs
Reading file:  /opt/pdk/xfab/XKIT/xh018/cadence/v10_0/spectre/v10_0_2/lpmos/models/dio/dhpw.scs
Reading file:  /opt/pdk/xfab/XKIT/xh018/cadence/v10_0/spectre/v10_0_2/lpmos/models/dio/dhnw.scs
Reading file:  /opt/pdk/xfab/XKIT/xh018/cadence/v10_0/spectre/v10_0_2/lpmos/models/dio/dndf.scs
Reading file:  /opt/pdk/xfab/XKIT/xh018/cadence/v10_0/spectre/v10_0_2/lpmos/models/dio/dpdwhn.scs
Reading file:  /opt/pdk/xfab/XKIT/xh018/cadence/v10_0/spectre/v10_0_2/lpmos/models/dio/dwhn.scs
Reading file:  /opt/pdk/xfab/XKIT/xh018/cadence/v10_0/spectre/v10_0_2/lpmos/models/dio/dpwhn.scs
Reading file:  /opt/pdk/xfab/XKIT/xh018/cadence/v10_0/spectre/v10_0_2/lpmos/models/dio/dpndf.scs
Reading file:  /opt/pdk/xfab/XKIT/xh018/cadence/v10_0/spectre/v10_0_2/lpmos/models/dio/dpdddnw.scs
Reading file:  /opt/pdk/xfab/XKIT/xh018/cadence/v10_0/spectre/v10_0_2/lpmos/models/dio/ddpldnw.scs
Reading file:  /opt/pdk/xfab/XKIT/xh018/cadence/v10_0/spectre/v10_0_2/lpmos/models/dio/dn3dpl.scs
Reading file:  /opt/pdk/xfab/XKIT/xh018/cadence/v10_0/spectre/v10_0_2/lpmos/models/dio/dbn.scs
Reading file:  /opt/pdk/xfab/XKIT/xh018/cadence/v10_0/spectre/v10_0_2/lpmos/models/dio/dpol.scs
Reading file:  /opt/pdk/xfab/XKIT/xh018/cadence/v10_0/spectre/v10_0_2/lpmos/models/dio/dnpdd_scr.scs
Reading file:  /opt/pdk/xfab/XKIT/xh018/cadence/v10_0/spectre/v10_0_2/lpmos/models/dio/dpdd_scr.scs
Reading file:  /opt/pdk/xfab/XKIT/xh018/cadence/v10_0/spectre/v10_0_2/lpmos/models/dio/dsb.scs
Reading file:  /opt/pdk/xfab/XKIT/xh018/cadence/v10_0/spectre/v10_0_2/lpmos/models/dio/dsba.scs
Reading file:  /opt/pdk/xfab/XKIT/xh018/cadence/v10_0/spectre/v10_0_2/lpmos/models/dio/dsba_qp1.scs
Reading file:  /opt/pdk/xfab/XKIT/xh018/cadence/v10_0/spectre/v10_0_2/lpmos/models/dio/dnp20.scs
Reading file:  /opt/pdk/xfab/XKIT/xh018/cadence/v10_0/spectre/v10_0_2/lpmos/models/dio/dpp20.scs
Reading file:  /opt/pdk/xfab/XKIT/xh018/cadence/v10_0/spectre/v10_0_2/lpmos/models/dio/dn3sci.scs
Reading file:  /opt/pdk/xfab/XKIT/xh018/cadence/v10_0/spectre/v10_0_2/lpmos/models/dio/dscidnwmv.scs
Reading file:  /opt/pdk/xfab/XKIT/xh018/cadence/v10_0/spectre/v10_0_2/lpmos/mos.scs
Reading file:  /opt/pdk/xfab/XKIT/xh018/cadence/v10_0/spectre/v10_0_2/lpmos/models/mos/tm_mos.scs
Reading file:  /opt/pdk/xfab/XKIT/xh018/cadence/v10_0/spectre/v10_0_2/lpmos/models/mos/ne.scs
Reading file:  /opt/pdk/xfab/XKIT/xh018/cadence/v10_0/spectre/v10_0_2/lpmos/models/mos/nei.scs
Reading file:  /opt/pdk/xfab/XKIT/xh018/cadence/v10_0/spectre/v10_0_2/lpmos/models/mos/nei_6.scs
Reading file:  /opt/pdk/xfab/XKIT/xh018/cadence/v10_0/spectre/v10_0_2/lpmos/models/mos/nei_m_6.scs
Reading file:  /opt/pdk/xfab/XKIT/xh018/cadence/v10_0/spectre/v10_0_2/lpmos/models/mos/nei_a_6.scs
Reading file:  /opt/pdk/xfab/XKIT/xh018/cadence/v10_0/spectre/v10_0_2/lpmos/models/mos/pe.scs
Reading file:  /opt/pdk/xfab/XKIT/xh018/cadence/v10_0/spectre/v10_0_2/lpmos/models/mos/pe_5.scs
Reading file:  /opt/pdk/xfab/XKIT/xh018/cadence/v10_0/spectre/v10_0_2/lpmos/models/mos/pei.scs
Reading file:  /opt/pdk/xfab/XKIT/xh018/cadence/v10_0/spectre/v10_0_2/lpmos/models/mos/pei_5.scs
Reading file:  /opt/pdk/xfab/XKIT/xh018/cadence/v10_0/spectre/v10_0_2/lpmos/models/mos/pei_m_5.scs
Reading file:  /opt/pdk/xfab/XKIT/xh018/cadence/v10_0/spectre/v10_0_2/lpmos/models/mos/pei_a_5.scs
Reading file:  /opt/pdk/xfab/XKIT/xh018/cadence/v10_0/spectre/v10_0_2/lpmos/models/mos/nel.scs
Reading file:  /opt/pdk/xfab/XKIT/xh018/cadence/v10_0/spectre/v10_0_2/lpmos/models/mos/neli.scs
Reading file:  /opt/pdk/xfab/XKIT/xh018/cadence/v10_0/spectre/v10_0_2/lpmos/models/mos/neli_6.scs
Reading file:  /opt/pdk/xfab/XKIT/xh018/cadence/v10_0/spectre/v10_0_2/lpmos/models/mos/neli_m_6.scs
Reading file:  /opt/pdk/xfab/XKIT/xh018/cadence/v10_0/spectre/v10_0_2/lpmos/models/mos/pel.scs
Reading file:  /opt/pdk/xfab/XKIT/xh018/cadence/v10_0/spectre/v10_0_2/lpmos/models/mos/pel_5.scs
Reading file:  /opt/pdk/xfab/XKIT/xh018/cadence/v10_0/spectre/v10_0_2/lpmos/models/mos/peli.scs
Reading file:  /opt/pdk/xfab/XKIT/xh018/cadence/v10_0/spectre/v10_0_2/lpmos/models/mos/peli_5.scs
Reading file:  /opt/pdk/xfab/XKIT/xh018/cadence/v10_0/spectre/v10_0_2/lpmos/models/mos/peli_m_5.scs
Reading file:  /opt/pdk/xfab/XKIT/xh018/cadence/v10_0/spectre/v10_0_2/lpmos/models/mos/nn3.scs
Reading file:  /opt/pdk/xfab/XKIT/xh018/cadence/v10_0/spectre/v10_0_2/lpmos/models/mos/ne3.scs
Reading file:  /opt/pdk/xfab/XKIT/xh018/cadence/v10_0/spectre/v10_0_2/lpmos/models/mos/ne3i.scs
Reading file:  /opt/pdk/xfab/XKIT/xh018/cadence/v10_0/spectre/v10_0_2/lpmos/models/mos/ne3i_6.scs
Reading file:  /opt/pdk/xfab/XKIT/xh018/cadence/v10_0/spectre/v10_0_2/lpmos/models/mos/ne3i_m_6.scs
Reading file:  /opt/pdk/xfab/XKIT/xh018/cadence/v10_0/spectre/v10_0_2/lpmos/models/mos/ne3i_a_6.scs
Reading file:  /opt/pdk/xfab/XKIT/xh018/cadence/v10_0/spectre/v10_0_2/lpmos/models/mos/pe3.scs
Reading file:  /opt/pdk/xfab/XKIT/xh018/cadence/v10_0/spectre/v10_0_2/lpmos/models/mos/pe3_5.scs
Reading file:  /opt/pdk/xfab/XKIT/xh018/cadence/v10_0/spectre/v10_0_2/lpmos/models/mos/pe3i.scs
Reading file:  /opt/pdk/xfab/XKIT/xh018/cadence/v10_0/spectre/v10_0_2/lpmos/models/mos/pe3i_5.scs
Reading file:  /opt/pdk/xfab/XKIT/xh018/cadence/v10_0/spectre/v10_0_2/lpmos/models/mos/pe3i_m_5.scs
Reading file:  /opt/pdk/xfab/XKIT/xh018/cadence/v10_0/spectre/v10_0_2/lpmos/models/mos/pe3i_a_5.scs
Reading file:  /opt/pdk/xfab/XKIT/xh018/cadence/v10_0/spectre/v10_0_2/lpmos/models/mos/pe3ln.scs
Reading file:  /opt/pdk/xfab/XKIT/xh018/cadence/v10_0/spectre/v10_0_2/lpmos/models/mos/pe3ln_5.scs
Reading file:  /opt/pdk/xfab/XKIT/xh018/cadence/v10_0/spectre/v10_0_2/lpmos/models/mos/pe3lni.scs
Reading file:  /opt/pdk/xfab/XKIT/xh018/cadence/v10_0/spectre/v10_0_2/lpmos/models/mos/pe3lni_5.scs
Reading file:  /opt/pdk/xfab/XKIT/xh018/cadence/v10_0/spectre/v10_0_2/lpmos/models/mos/pe3lni_m_5.scs
Reading file:  /opt/pdk/xfab/XKIT/xh018/cadence/v10_0/spectre/v10_0_2/lpmos/models/mos/nd3.scs
Reading file:  /opt/pdk/xfab/XKIT/xh018/cadence/v10_0/spectre/v10_0_2/lpmos/models/mos/nd3_mos1.scs
Reading file:  /opt/pdk/xfab/XKIT/xh018/cadence/v10_0/spectre/v10_0_2/lpmos/models/mos/nd3_mos2.scs
Reading file:  /opt/pdk/xfab/XKIT/xh018/cadence/v10_0/spectre/v10_0_2/lpmos/models/mos/nd3i.scs
Reading file:  /opt/pdk/xfab/XKIT/xh018/cadence/v10_0/spectre/v10_0_2/lpmos/models/mos/nd3i_mos1.scs
Reading file:  /opt/pdk/xfab/XKIT/xh018/cadence/v10_0/spectre/v10_0_2/lpmos/models/mos/nd3i_mos2.scs
Reading file:  /opt/pdk/xfab/XKIT/xh018/cadence/v10_0/spectre/v10_0_2/lpmos/models/mos/nd3i_6.scs
Reading file:  /opt/pdk/xfab/XKIT/xh018/cadence/v10_0/spectre/v10_0_2/lpmos/models/mos/nd3i_m_6.scs
Reading file:  /opt/pdk/xfab/XKIT/xh018/cadence/v10_0/spectre/v10_0_2/lpmos/models/mos/nelna.scs
Reading file:  /opt/pdk/xfab/XKIT/xh018/cadence/v10_0/spectre/v10_0_2/lpmos/models/mos/nelnai.scs
Reading file:  /opt/pdk/xfab/XKIT/xh018/cadence/v10_0/spectre/v10_0_2/lpmos/models/mos/nelnai_6.scs
Reading file:  /opt/pdk/xfab/XKIT/xh018/cadence/v10_0/spectre/v10_0_2/lpmos/models/mos/nelnai_m_6.scs
Reading file:  /opt/pdk/xfab/XKIT/xh018/cadence/v10_0/spectre/v10_0_2/lpmos/models/mos/ne3lna.scs
Reading file:  /opt/pdk/xfab/XKIT/xh018/cadence/v10_0/spectre/v10_0_2/lpmos/models/mos/ne3lnai.scs
Reading file:  /opt/pdk/xfab/XKIT/xh018/cadence/v10_0/spectre/v10_0_2/lpmos/models/mos/ne3lnai_6.scs
Reading file:  /opt/pdk/xfab/XKIT/xh018/cadence/v10_0/spectre/v10_0_2/lpmos/models/mos/ne3lnai_m_6.scs
Reading file:  /opt/pdk/xfab/XKIT/xh018/cadence/v10_0/spectre/v10_0_2/lpmos/models/mos/pe3lna.scs
Reading file:  /opt/pdk/xfab/XKIT/xh018/cadence/v10_0/spectre/v10_0_2/lpmos/models/mos/pe3lna_5.scs
Reading file:  /opt/pdk/xfab/XKIT/xh018/cadence/v10_0/spectre/v10_0_2/lpmos/models/mos/pe3lnai.scs
Reading file:  /opt/pdk/xfab/XKIT/xh018/cadence/v10_0/spectre/v10_0_2/lpmos/models/mos/pe3lnai_5.scs
Reading file:  /opt/pdk/xfab/XKIT/xh018/cadence/v10_0/spectre/v10_0_2/lpmos/models/mos/pe3lnai_m_5.scs
Reading file:  /opt/pdk/xfab/XKIT/xh018/cadence/v10_0/spectre/v10_0_2/lpmos/models/mos/nmma.scs
Reading file:  /opt/pdk/xfab/XKIT/xh018/cadence/v10_0/spectre/v10_0_2/lpmos/models/mos/jf_nmma.scs
Reading file:  /opt/pdk/xfab/XKIT/xh018/cadence/v10_0/spectre/v10_0_2/lpmos/models/mos/nmma_bjt.scs
Reading file:  /opt/pdk/xfab/XKIT/xh018/cadence/v10_0/spectre/v10_0_2/lpmos/models/mos/pmma.scs
Reading file:  /opt/pdk/xfab/XKIT/xh018/cadence/v10_0/spectre/v10_0_2/lpmos/models/mos/jf_pmma.scs
Reading file:  /opt/pdk/xfab/XKIT/xh018/cadence/v10_0/spectre/v10_0_2/lpmos/models/mos/pmma_bjt.scs
Reading file:  /opt/pdk/xfab/XKIT/xh018/cadence/v10_0/spectre/v10_0_2/lpmos/models/mos/nedi.scs
Reading file:  /opt/pdk/xfab/XKIT/xh018/cadence/v10_0/spectre/v10_0_2/lpmos/models/mos/nedi_bjt.scs
Reading file:  /opt/pdk/xfab/XKIT/xh018/cadence/v10_0/spectre/v10_0_2/lpmos/models/mos/nedia.scs
Reading file:  /opt/pdk/xfab/XKIT/xh018/cadence/v10_0/spectre/v10_0_2/lpmos/models/mos/nedia_bjt.scs
Reading file:  /opt/pdk/xfab/XKIT/xh018/cadence/v10_0/spectre/v10_0_2/lpmos/models/mos/ped2.scs
Reading file:  /opt/pdk/xfab/XKIT/xh018/cadence/v10_0/spectre/v10_0_2/lpmos/models/mos/ped2_bjt.scs
Reading file:  /opt/pdk/xfab/XKIT/xh018/cadence/v10_0/spectre/v10_0_2/lpmos/models/mos/ped.scs
Reading file:  /opt/pdk/xfab/XKIT/xh018/cadence/v10_0/spectre/v10_0_2/lpmos/models/mos/ped_bjt.scs
Reading file:  /opt/pdk/xfab/XKIT/xh018/cadence/v10_0/spectre/v10_0_2/lpmos/models/mos/nhv.scs
Reading file:  /opt/pdk/xfab/XKIT/xh018/cadence/v10_0/spectre/v10_0_2/lpmos/models/mos/nhv_mos2.scs
Reading file:  /opt/pdk/xfab/XKIT/xh018/cadence/v10_0/spectre/v10_0_2/lpmos/models/mos/nhv_bjt.scs
Reading file:  /opt/pdk/xfab/XKIT/xh018/cadence/v10_0/spectre/v10_0_2/lpmos/models/mos/nhhv.scs
Reading file:  /opt/pdk/xfab/XKIT/xh018/cadence/v10_0/spectre/v10_0_2/lpmos/models/mos/nhhv_mos2.scs
Reading file:  /opt/pdk/xfab/XKIT/xh018/cadence/v10_0/spectre/v10_0_2/lpmos/models/mos/nhhv_bjt.scs
Reading file:  /opt/pdk/xfab/XKIT/xh018/cadence/v10_0/spectre/v10_0_2/lpmos/models/mos/nmmc.scs
Reading file:  /opt/pdk/xfab/XKIT/xh018/cadence/v10_0/spectre/v10_0_2/lpmos/models/mos/nmmc_mos2.scs
Reading file:  /opt/pdk/xfab/XKIT/xh018/cadence/v10_0/spectre/v10_0_2/lpmos/models/mos/nmmc_bjt.scs
Reading file:  /opt/pdk/xfab/XKIT/xh018/cadence/v10_0/spectre/v10_0_2/lpmos/models/mos/nmmd.scs
Reading file:  /opt/pdk/xfab/XKIT/xh018/cadence/v10_0/spectre/v10_0_2/lpmos/models/mos/nmmd_mos2.scs
Reading file:  /opt/pdk/xfab/XKIT/xh018/cadence/v10_0/spectre/v10_0_2/lpmos/models/mos/nmmd_bjt.scs
Reading file:  /opt/pdk/xfab/XKIT/xh018/cadence/v10_0/spectre/v10_0_2/lpmos/models/mos/nmc.scs
Reading file:  /opt/pdk/xfab/XKIT/xh018/cadence/v10_0/spectre/v10_0_2/lpmos/models/mos/nmc_mos2.scs
Reading file:  /opt/pdk/xfab/XKIT/xh018/cadence/v10_0/spectre/v10_0_2/lpmos/models/mos/nmc_bjt.scs
Reading file:  /opt/pdk/xfab/XKIT/xh018/cadence/v10_0/spectre/v10_0_2/lpmos/models/mos/nma.scs
Reading file:  /opt/pdk/xfab/XKIT/xh018/cadence/v10_0/spectre/v10_0_2/lpmos/models/mos/nma_bjt.scs
Reading file:  /opt/pdk/xfab/XKIT/xh018/cadence/v10_0/spectre/v10_0_2/lpmos/models/mos/phv.scs
Reading file:  /opt/pdk/xfab/XKIT/xh018/cadence/v10_0/spectre/v10_0_2/lpmos/models/mos/phv_mos2.scs
Reading file:  /opt/pdk/xfab/XKIT/xh018/cadence/v10_0/spectre/v10_0_2/lpmos/models/mos/phv_bjt.scs
Reading file:  /opt/pdk/xfab/XKIT/xh018/cadence/v10_0/spectre/v10_0_2/lpmos/models/mos/phhv.scs
Reading file:  /opt/pdk/xfab/XKIT/xh018/cadence/v10_0/spectre/v10_0_2/lpmos/models/mos/phhv_mos2.scs
Reading file:  /opt/pdk/xfab/XKIT/xh018/cadence/v10_0/spectre/v10_0_2/lpmos/models/mos/phhv_bjt.scs
Reading file:  /opt/pdk/xfab/XKIT/xh018/cadence/v10_0/spectre/v10_0_2/lpmos/models/mos/pmc.scs
Reading file:  /opt/pdk/xfab/XKIT/xh018/cadence/v10_0/spectre/v10_0_2/lpmos/models/mos/pmc_mos2.scs
Reading file:  /opt/pdk/xfab/XKIT/xh018/cadence/v10_0/spectre/v10_0_2/lpmos/models/mos/pmc_bjt.scs
Reading file:  /opt/pdk/xfab/XKIT/xh018/cadence/v10_0/spectre/v10_0_2/lpmos/models/mos/pmmc.scs
Reading file:  /opt/pdk/xfab/XKIT/xh018/cadence/v10_0/spectre/v10_0_2/lpmos/models/mos/pmmc_mos2.scs
Reading file:  /opt/pdk/xfab/XKIT/xh018/cadence/v10_0/spectre/v10_0_2/lpmos/models/mos/pmmc_bjt.scs
Reading file:  /opt/pdk/xfab/XKIT/xh018/cadence/v10_0/spectre/v10_0_2/lpmos/models/mos/pma.scs
Reading file:  /opt/pdk/xfab/XKIT/xh018/cadence/v10_0/spectre/v10_0_2/lpmos/models/mos/pma_bjt.scs
Reading file:  /opt/pdk/xfab/XKIT/xh018/cadence/v10_0/spectre/v10_0_2/lpmos/models/mos/pmb.scs
Reading file:  /opt/pdk/xfab/XKIT/xh018/cadence/v10_0/spectre/v10_0_2/lpmos/models/mos/nesvt.scs
Reading file:  /opt/pdk/xfab/XKIT/xh018/cadence/v10_0/spectre/v10_0_2/lpmos/models/mos/nesvti.scs
Reading file:  /opt/pdk/xfab/XKIT/xh018/cadence/v10_0/spectre/v10_0_2/lpmos/models/mos/nesvti_6.scs
Reading file:  /opt/pdk/xfab/XKIT/xh018/cadence/v10_0/spectre/v10_0_2/lpmos/models/mos/nesvti_m_6.scs
Reading file:  /opt/pdk/xfab/XKIT/xh018/cadence/v10_0/spectre/v10_0_2/lpmos/models/mos/pesvt.scs
Reading file:  /opt/pdk/xfab/XKIT/xh018/cadence/v10_0/spectre/v10_0_2/lpmos/models/mos/pesvt_5.scs
Reading file:  /opt/pdk/xfab/XKIT/xh018/cadence/v10_0/spectre/v10_0_2/lpmos/models/mos/pesvti.scs
Reading file:  /opt/pdk/xfab/XKIT/xh018/cadence/v10_0/spectre/v10_0_2/lpmos/models/mos/pesvti_5.scs
Reading file:  /opt/pdk/xfab/XKIT/xh018/cadence/v10_0/spectre/v10_0_2/lpmos/models/mos/pesvti_m_5.scs
Reading file:  /opt/pdk/xfab/XKIT/xh018/cadence/v10_0/spectre/v10_0_2/lpmos/models/mos/nhvd.scs
Reading file:  /opt/pdk/xfab/XKIT/xh018/cadence/v10_0/spectre/v10_0_2/lpmos/models/mos/nhvd_bjt.scs
Reading file:  /opt/pdk/xfab/XKIT/xh018/cadence/v10_0/spectre/v10_0_2/lpmos/models/mos/nhhvd.scs
Reading file:  /opt/pdk/xfab/XKIT/xh018/cadence/v10_0/spectre/v10_0_2/lpmos/models/mos/nhhvd_bjt.scs
Reading file:  /opt/pdk/xfab/XKIT/xh018/cadence/v10_0/spectre/v10_0_2/lpmos/photo.scs
Reading file:  /opt/pdk/xfab/XKIT/xh018/cadence/v10_0/spectre/v10_0_2/lpmos/models/photo/tm_pho.scs
Reading file:  /opt/pdk/xfab/XKIT/xh018/cadence/v10_0/spectre/v10_0_2/lpmos/models/photo/dphoa.scs
Reading file:  /opt/pdk/xfab/XKIT/xh018/cadence/v10_0/spectre/v10_0_2/lpmos/models/photo/dpho.va
Reading link:  /opt/tools/cadence/installs/SPECTRE241/tools.lnx86/spectre/etc/ahdl/constants.h
Reading file:  /opt/tools/cadence/installs/SPECTRE241/tools.lnx86/spectre/etc/ahdl/constants.vams
Reading link:  /opt/tools/cadence/installs/SPECTRE241/tools.lnx86/spectre/etc/ahdl/discipline.h
Reading file:  /opt/tools/cadence/installs/SPECTRE241/tools.lnx86/spectre/etc/ahdl/disciplines.vams
Reading file:  /opt/pdk/xfab/XKIT/xh018/cadence/v10_0/spectre/v10_0_2/lpmos/models/photo/dphob.scs
Reading file:  /opt/pdk/xfab/XKIT/xh018/cadence/v10_0/spectre/v10_0_2/lpmos/models/photo/dphoc.scs
Reading file:  /opt/pdk/xfab/XKIT/xh018/cadence/v10_0/spectre/v10_0_2/lpmos/models/photo/iphoto_uv.va
Reading file:  /opt/pdk/xfab/XKIT/xh018/cadence/v10_0/spectre/v10_0_2/lpmos/models/photo/dphoc_cat.scs
Reading file:  /opt/pdk/xfab/XKIT/xh018/cadence/v10_0/spectre/v10_0_2/lpmos/models/photo/dphoc0.scs
Reading file:  /opt/pdk/xfab/XKIT/xh018/cadence/v10_0/spectre/v10_0_2/lpmos/models/photo/dphoc0_cat.scs
Reading file:  /opt/pdk/xfab/XKIT/xh018/cadence/v10_0/spectre/v10_0_2/lpmos/models/photo/dphocfp.scs
Reading file:  /opt/pdk/xfab/XKIT/xh018/cadence/v10_0/spectre/v10_0_2/lpmos/models/photo/dphocfp_cat.scs
Reading file:  /opt/pdk/xfab/XKIT/xh018/cadence/v10_0/spectre/v10_0_2/lpmos/models/photo/dphod.scs
Reading file:  /opt/pdk/xfab/XKIT/xh018/cadence/v10_0/spectre/v10_0_2/lpmos/models/photo/dphod_an1.scs
Reading file:  /opt/pdk/xfab/XKIT/xh018/cadence/v10_0/spectre/v10_0_2/lpmos/models/photo/dphod_an2.scs
Reading file:  /opt/pdk/xfab/XKIT/xh018/cadence/v10_0/spectre/v10_0_2/lpmos/models/photo/dphod0.scs
Reading file:  /opt/pdk/xfab/XKIT/xh018/cadence/v10_0/spectre/v10_0_2/lpmos/models/photo/dphod0_an1.scs
Reading file:  /opt/pdk/xfab/XKIT/xh018/cadence/v10_0/spectre/v10_0_2/lpmos/models/photo/dphod0_an2.scs
Reading file:  /opt/pdk/xfab/XKIT/xh018/cadence/v10_0/spectre/v10_0_2/lpmos/models/photo/dphodfp.scs
Reading file:  /opt/pdk/xfab/XKIT/xh018/cadence/v10_0/spectre/v10_0_2/lpmos/models/photo/dphodfp_an1.scs
Reading file:  /opt/pdk/xfab/XKIT/xh018/cadence/v10_0/spectre/v10_0_2/lpmos/models/photo/dphodfp_an2.scs
Reading file:  /opt/pdk/xfab/XKIT/xh018/cadence/v10_0/spectre/v10_0_2/lpmos/models/photo/dspada0.scs
Reading file:  /opt/pdk/xfab/XKIT/xh018/cadence/v10_0/spectre/v10_0_2/lpmos/models/photo/ispad.va
Reading file:  /opt/pdk/xfab/XKIT/xh018/cadence/v10_0/spectre/v10_0_2/lpmos/models/photo/dapb.scs
Reading file:  /opt/pdk/xfab/XKIT/xh018/cadence/v10_0/spectre/v10_0_2/lpmos/models/photo/iphoto_apd_trig.va
Reading file:  /opt/pdk/xfab/XKIT/xh018/cadence/v10_0/spectre/v10_0_2/lpmos/models/photo/dapb_jun.scs
Reading file:  /opt/pdk/xfab/XKIT/xh018/cadence/v10_0/spectre/v10_0_2/lpmos/models/photo/dapb_trig.scs
Reading file:  /opt/pdk/xfab/XKIT/xh018/cadence/v10_0/spectre/v10_0_2/lpmos/models/photo/dapb0.scs
Reading file:  /opt/pdk/xfab/XKIT/xh018/cadence/v10_0/spectre/v10_0_2/lpmos/models/photo/dapb0_jun.scs
Reading file:  /opt/pdk/xfab/XKIT/xh018/cadence/v10_0/spectre/v10_0_2/lpmos/models/photo/dspb.scs
Reading file:  /opt/pdk/xfab/XKIT/xh018/cadence/v10_0/spectre/v10_0_2/lpmos/models/photo/ispad_trig.va
Reading file:  /opt/pdk/xfab/XKIT/xh018/cadence/v10_0/spectre/v10_0_2/lpmos/models/photo/dspb_jun.scs
Reading file:  /opt/pdk/xfab/XKIT/xh018/cadence/v10_0/spectre/v10_0_2/lpmos/models/photo/dspb_trig.scs
Reading file:  /opt/pdk/xfab/XKIT/xh018/cadence/v10_0/spectre/v10_0_2/lpmos/models/photo/dspb0.scs
Reading file:  /opt/pdk/xfab/XKIT/xh018/cadence/v10_0/spectre/v10_0_2/lpmos/models/photo/dspb0_jun.scs
Reading file:  /opt/pdk/xfab/XKIT/xh018/cadence/v10_0/spectre/v10_0_2/lpmos/models/photo/dspbfep.scs
Reading file:  /opt/pdk/xfab/XKIT/xh018/cadence/v10_0/spectre/v10_0_2/lpmos/models/photo/dapda.scs
Reading file:  /opt/pdk/xfab/XKIT/xh018/cadence/v10_0/spectre/v10_0_2/lpmos/models/photo/iphoto_apd.va
Reading file:  /opt/pdk/xfab/XKIT/xh018/cadence/v10_0/spectre/v10_0_2/lpmos/models/photo/dapda_cat.scs
Reading file:  /opt/pdk/xfab/XKIT/xh018/cadence/v10_0/spectre/v10_0_2/lpmos/models/photo/dapda0.scs
Reading file:  /opt/pdk/xfab/XKIT/xh018/cadence/v10_0/spectre/v10_0_2/lpmos/models/photo/dspada.scs
Reading file:  /opt/pdk/xfab/XKIT/xh018/cadence/v10_0/spectre/v10_0_2/lpmos/models/photo/dspada_cat.scs
Reading file:  /opt/pdk/xfab/XKIT/xh018/cadence/v10_0/spectre/v10_0_2/lpmos/res.scs
Reading file:  /opt/pdk/xfab/XKIT/xh018/cadence/v10_0/spectre/v10_0_2/lpmos/models/res/tm_res.scs
Reading file:  /opt/pdk/xfab/XKIT/xh018/cadence/v10_0/spectre/v10_0_2/lpmos/models/res/rdn.scs
Reading file:  /opt/pdk/xfab/XKIT/xh018/cadence/v10_0/spectre/v10_0_2/lpmos/models/res/rdn_esd.scs
Reading file:  /opt/pdk/xfab/XKIT/xh018/cadence/v10_0/spectre/v10_0_2/lpmos/models/res/rdp.scs
Reading file:  /opt/pdk/xfab/XKIT/xh018/cadence/v10_0/spectre/v10_0_2/lpmos/models/res/rdp_io.scs
Reading file:  /opt/pdk/xfab/XKIT/xh018/cadence/v10_0/spectre/v10_0_2/lpmos/models/res/rdp_esd.scs
Reading file:  /opt/pdk/xfab/XKIT/xh018/cadence/v10_0/spectre/v10_0_2/lpmos/models/res/rnw.scs
Reading file:  /opt/pdk/xfab/XKIT/xh018/cadence/v10_0/spectre/v10_0_2/lpmos/models/res/rnw_scr.scs
Reading file:  /opt/pdk/xfab/XKIT/xh018/cadence/v10_0/spectre/v10_0_2/lpmos/models/res/rdn3.scs
Reading file:  /opt/pdk/xfab/XKIT/xh018/cadence/v10_0/spectre/v10_0_2/lpmos/models/res/rdp3.scs
Reading file:  /opt/pdk/xfab/XKIT/xh018/cadence/v10_0/spectre/v10_0_2/lpmos/models/res/rnw3.scs
Reading file:  /opt/pdk/xfab/XKIT/xh018/cadence/v10_0/spectre/v10_0_2/lpmos/models/res/rnw3_scr.scs
Reading file:  /opt/pdk/xfab/XKIT/xh018/cadence/v10_0/spectre/v10_0_2/lpmos/models/res/rdnwmv.scs
Reading file:  /opt/pdk/xfab/XKIT/xh018/cadence/v10_0/spectre/v10_0_2/lpmos/models/res/rnp1.scs
Reading file:  /opt/pdk/xfab/XKIT/xh018/cadence/v10_0/spectre/v10_0_2/lpmos/models/res/rnp1_3.scs
Reading file:  /opt/pdk/xfab/XKIT/xh018/cadence/v10_0/spectre/v10_0_2/lpmos/models/res/rpp1.scs
Reading file:  /opt/pdk/xfab/XKIT/xh018/cadence/v10_0/spectre/v10_0_2/lpmos/models/res/rpp1_3.scs
Reading file:  /opt/pdk/xfab/XKIT/xh018/cadence/v10_0/spectre/v10_0_2/lpmos/models/res/rpp1s.scs
Reading file:  /opt/pdk/xfab/XKIT/xh018/cadence/v10_0/spectre/v10_0_2/lpmos/models/res/rpp1s_3.scs
Reading file:  /opt/pdk/xfab/XKIT/xh018/cadence/v10_0/spectre/v10_0_2/lpmos/models/res/rnp1h.scs
Reading file:  /opt/pdk/xfab/XKIT/xh018/cadence/v10_0/spectre/v10_0_2/lpmos/models/res/rnp1h_3.scs
Reading file:  /opt/pdk/xfab/XKIT/xh018/cadence/v10_0/spectre/v10_0_2/lpmos/models/res/rpp1k1.scs
Reading file:  /opt/pdk/xfab/XKIT/xh018/cadence/v10_0/spectre/v10_0_2/lpmos/models/res/rpp1k1_3.scs
Reading file:  /opt/pdk/xfab/XKIT/xh018/cadence/v10_0/spectre/v10_0_2/lpmos/models/res/rctdn.scs
Reading file:  /opt/pdk/xfab/XKIT/xh018/cadence/v10_0/spectre/v10_0_2/lpmos/models/res/rctdp.scs
Reading file:  /opt/pdk/xfab/XKIT/xh018/cadence/v10_0/spectre/v10_0_2/lpmos/models/res/rctp1.scs
Reading file:  /opt/pdk/xfab/XKIT/xh018/cadence/v10_0/spectre/v10_0_2/lpmos/models/res/rsildn.scs
Reading file:  /opt/pdk/xfab/XKIT/xh018/cadence/v10_0/spectre/v10_0_2/lpmos/models/res/rsildp.scs
Reading file:  /opt/pdk/xfab/XKIT/xh018/cadence/v10_0/spectre/v10_0_2/lpmos/models/res/rsilnp1.scs
Reading file:  /opt/pdk/xfab/XKIT/xh018/cadence/v10_0/spectre/v10_0_2/lpmos/models/res/rsilpp1.scs
Reading file:  /opt/pdk/xfab/XKIT/xh018/cadence/v10_0/spectre/v10_0_2/lpmos/models/res/rsbdn.scs
Reading file:  /opt/pdk/xfab/XKIT/xh018/cadence/v10_0/spectre/v10_0_2/lpmos/models/res/rsbdp.scs
Reading file:  /opt/pdk/xfab/XKIT/xh018/cadence/v10_0/spectre/v10_0_2/lpmos/models/res/rsbdn3.scs
Reading file:  /opt/pdk/xfab/XKIT/xh018/cadence/v10_0/spectre/v10_0_2/lpmos/models/res/rsbdp3.scs
Reading file:  /opt/pdk/xfab/XKIT/xh018/cadence/v10_0/spectre/v10_0_2/lpmos/models/res/rsbnp1.scs
Reading file:  /opt/pdk/xfab/XKIT/xh018/cadence/v10_0/spectre/v10_0_2/lpmos/models/res/rsbpp1.scs
Reading file:  /opt/pdk/xfab/XKIT/xh018/cadence/v10_0/spectre/v10_0_2/lpmos/models/res/rsbpp1k1.scs
Reading file:  /opt/pdk/xfab/XKIT/xh018/cadence/v10_0/spectre/v10_0_2/lpmos/models/res/rm1.scs
Reading file:  /opt/pdk/xfab/XKIT/xh018/cadence/v10_0/spectre/v10_0_2/lpmos/models/res/rm2.scs
Reading file:  /opt/pdk/xfab/XKIT/xh018/cadence/v10_0/spectre/v10_0_2/lpmos/models/res/rm3.scs
Reading file:  /opt/pdk/xfab/XKIT/xh018/cadence/v10_0/spectre/v10_0_2/lpmos/models/res/rm4.scs
Reading file:  /opt/pdk/xfab/XKIT/xh018/cadence/v10_0/spectre/v10_0_2/lpmos/models/res/rm5.scs
Reading file:  /opt/pdk/xfab/XKIT/xh018/cadence/v10_0/spectre/v10_0_2/lpmos/models/res/rmtp.scs
Reading file:  /opt/pdk/xfab/XKIT/xh018/cadence/v10_0/spectre/v10_0_2/lpmos/models/res/rmtpl.scs
Reading file:  /opt/pdk/xfab/XKIT/xh018/cadence/v10_0/spectre/v10_0_2/lpmos/models/res/pfuse.scs
Reading file:  /opt/pdk/xfab/XKIT/xh018/cadence/v10_0/spectre/v10_0_2/lpmos/models/res/s_res.scs
Time for NDB Parsing: CPU = 238.074 ms, elapsed = 1.32624 s.
Time accumulated: CPU = 412.449 ms, elapsed = 1.32624 s.
Peak resident memory used = 128 Mbytes.

Time for Elaboration: CPU = 15.304 ms, elapsed = 17.709 ms.
Time accumulated: CPU = 427.845 ms, elapsed = 1.34412 s.
Peak resident memory used = 134 Mbytes.


Notice from spectre during hierarchy flattening.
    The value 'psf' specified for the 'checklimitdest' option will no longer be supported in future releases. Use 'spectre -h' to see other recommended values for the 'checklimitdest' option.


Time for EDB Visiting: CPU = 1.16 ms, elapsed = 1.72496 ms.
Time accumulated: CPU = 429.13 ms, elapsed = 1.34607 s.
Peak resident memory used = 138 Mbytes.


Notice from spectre during initial setup.
    Multithreading is disabled due to the size of the design being too small.


Netlist title:
        // Generated for: spectre


Global user options:
         psfversion = 1.4.0
            vabstol = 1e-06
            iabstol = 1e-12
               temp = 27
               gmin = 1e-12
             rforce = 1
           maxnotes = 5
           maxwarns = 5
             digits = 5
               cols = 80
             pivrel = 0.001
           sensfile = ../psf/sens.output
     checklimitdest = psf
               save = allpub
             reltol = 0.001
               tnom = 27
             scalem = 1
              scale = 1

Scoped user options:

Circuit inventory:
              nodes 3
            bsim3v3 1     
            isource 1     
               vcvs 1     
            vsource 1     

Analysis and control statement inventory:
                 dc 1     
               info 7     

Output statements:
             .probe 0     
           .measure 0     
               save 0     


Notice from spectre during initial setup.
    APS enabled.

Time for parsing: CPU = 2.584 ms, elapsed = 12.697 ms.
Time accumulated: CPU = 431.811 ms, elapsed = 1.35895 s.
Peak resident memory used = 147 Mbytes.

~~~~~~~~~~~~~~~~~~~~~~
Pre-Simulation Summary
~~~~~~~~~~~~~~~~~~~~~~
   -   (APS) Multi-threading. The recommended number of threads is 1, consider adding +mt=1 on command line.
~~~~~~~~~~~~~~~~~~~~~~

******************
DC Analysis `dcOp'
******************

Opening the PSF file ../psf/dcOp.dc ...
Important parameter values:
    reltol = 1e-03
    abstol(V) = 1 uV
    abstol(I) = 1 pA
    temp = 27 C
    tnom = 27 C
    tempeffects = all
    gmindc = 1 pS
    rabsshort = 1 mOhm

Notice from spectre during DC analysis `dcOp'.
    GminDC = 1 pS is large enough to noticeably affect the DC solution.
        dV(G) = -30.9735 uV
        Use the `gmin_check' option to eliminate or expand this report.


Maximum value achieved for any signal of each quantity: 
V: V(net1) = 500 mV
I: I(V1:p) = 0 A
Convergence achieved in 5 iterations.
DC simulation time: CPU = 1.827 ms, elapsed = 7.25102 ms.
Total time required for dc analysis `dcOp': CPU = 1.919 ms, elapsed = 7.46489 ms, util. = 25.7%.
Time accumulated: CPU = 440.936 ms, elapsed = 1.37771 s.
Peak resident memory used = 151 Mbytes.

dcOpInfo: writing operating point information to rawfile.

Opening the PSF file ../psf/dcOpInfo.info ...
modelParameter: writing model parameter values to rawfile.

Opening the PSF file ../psf/modelParameter.info ...
element: writing instance parameter values to rawfile.

Opening the PSF file ../psf/element.info ...
outputParameter: writing output parameter values to rawfile.

Opening the PSF file ../psf/outputParameter.info ...
designParamVals: writing netlist parameters to rawfile.

Opening the PSFASCII file ../psf/designParamVals.info ...
primitives: writing primitives to rawfile.

Opening the PSFASCII file ../psf/primitives.info.primitives ...
subckts: writing subcircuits to rawfile.

Opening the PSFASCII file ../psf/subckts.info.subckts ...
Licensing Information:
Lic Summary:
[16:59:47.042993] Cdslmd servers:3000@lic08.ug.kth.se
[16:59:47.043058] Feature usage summary:
[16:59:47.043097] Virtuoso_Multi_mode_Simulation


Aggregate audit (4:59:47 PM, Sun Nov 9, 2025):
Time used: CPU = 456 ms, elapsed = 1.44 s, util. = 31.5%.
Time spent in licensing: elapsed = 799 ms, percentage of total = 55.3%.
Peak memory used = 156 Mbytes.
Simulation started at: 4:59:45 PM, Sun Nov 9, 2025, ended at: 4:59:47 PM, Sun Nov 9, 2025, with elapsed time (wall clock): 1.44 s.
spectre completes with 0 errors, 0 warnings, and 5 notices.


********* LOG ENDS **************
**                             **
**                             **
********* LOG STARTS ************



Spectre (R) Circuit Simulator
Version 24.1.0.288.isr5 64bit -- 3 Apr 2025
Copyright (C) 1989-2025 Cadence Design Systems, Inc. All rights reserved worldwide. Cadence and Spectre are registered trademarks of Cadence Design Systems, Inc. All others are the property of their respective holders.

Includes RSA BSAFE(R) Cryptographic or Security Protocol Software from RSA Security, Inc.

User: saul   Host: edatools   HostID: 11AC0200   PID: 16174
Memory  available: 22.3111 GB  physical: 27.3104 GB
Linux   : Rocky Linux release 8.10 (Green Obsidian)
CPU Type: 11th Gen Intel(R) Core(TM) i7-11700K @ 3.60GHz
All processors running at 3600.0 MHz
        Socket: Processors
        0:       0,  1,  2,  3,  4,  5,  6,  7,  8,  9
                10, 11, 12, 13, 14, 15
        
System load averages (1min, 5min, 15min) : 10.6 %, 7.7 %, 4.6 %
HPC is enabled


Simulating `input.scs' on edatools at 4:59:44 PM, Sun Nov 9, 2025 (process id: 16174).
Current working directory: /home/saul/projects/FIL3601/Sim/LAB1/GM_ID/adexl/results/data/Ocean.41/2/DAY2:GM_ID:1/netlist
Command line:
    /opt/tools/cadence/installs/SPECTRE241/tools/bin/spectre -64  \
        input.scs +escchars +log ../psf/spectre.out -format psfxl -raw  \
        ../psf +aps +mt +lqtimeout 900 -maxw 5 -maxn 5 -env ade  \
        -ahdllibdir  \
        /home/saul/projects/FIL3601/Sim/LAB1/GM_ID/adexl/results/data/Ocean.41/sharedData/Job7/ahdl/input.ahdlSimDB  \
        +logstatus  \
        +adespetkn=0001089D13A302B663E41FB550AF0DF415A679A322D5069144BF588C12F604E07EF416DC01A319B562BB63D364AF22E645A34AD101A821B641DD6FDE6CC04F9243EF79D15D9175FF34980CBD6B9974D3349877CA11EF18A05BF743E628CB44E00EAF79D12FF874D3349879D118F874D3349810C1D085BCAE5D88000036B8

Simulation Id: V5L5FEuEUeOyaxww
Licensing Information:
[16:59:44.188905] Configured Lic search path (24.01-s002): 3000@lic08.ug.kth.se

Licensing Information:
[16:59:45.024816] Periodic Lic check successful

Loading /opt/tools/cadence/installs/SPECTRE241/tools.lnx86/cmi/lib/64bit/5.0/libinfineon_sh.so ...
Loading /opt/tools/cadence/installs/SPECTRE241/tools.lnx86/cmi/lib/64bit/5.0/libphilips_I_sh.so ...
Loading /opt/tools/cadence/installs/SPECTRE241/tools.lnx86/cmi/lib/64bit/5.0/libphilips_sh.so ...
Loading /opt/tools/cadence/installs/SPECTRE241/tools.lnx86/cmi/lib/64bit/5.0/libsparam_sh.so ...
Loading /opt/tools/cadence/installs/SPECTRE241/tools.lnx86/cmi/lib/64bit/5.0/libstmodels_sh.so ...
Reading file:  /home/saul/projects/FIL3601/Sim/LAB1/GM_ID/adexl/results/data/Ocean.41/2/DAY2:GM_ID:1/netlist/input.scs
Reading file:  /opt/tools/cadence/installs/SPECTRE241/tools.lnx86/spectre/etc/configs/spectre.cfg
Reading file:  /opt/pdk/xfab/XKIT/xh018/cadence/v10_0/spectre/v10_0_2/lpmos/config.scs
Reading file:  /opt/pdk/xfab/XKIT/xh018/cadence/v10_0/spectre/v10_0_2/lpmos/param.scs
Reading file:  /opt/pdk/xfab/XKIT/xh018/cadence/v10_0/spectre/v10_0_2/lpmos/bip.scs
Reading file:  /opt/pdk/xfab/XKIT/xh018/cadence/v10_0/spectre/v10_0_2/lpmos/models/bip/tm_bip.scs
Reading file:  /opt/pdk/xfab/XKIT/xh018/cadence/v10_0/spectre/v10_0_2/lpmos/models/bip/qpva.scs
Reading file:  /opt/pdk/xfab/XKIT/xh018/cadence/v10_0/spectre/v10_0_2/lpmos/models/bip/qpvb.scs
Reading file:  /opt/pdk/xfab/XKIT/xh018/cadence/v10_0/spectre/v10_0_2/lpmos/models/bip/qpvc.scs
Reading file:  /opt/pdk/xfab/XKIT/xh018/cadence/v10_0/spectre/v10_0_2/lpmos/models/bip/qpva3.scs
Reading file:  /opt/pdk/xfab/XKIT/xh018/cadence/v10_0/spectre/v10_0_2/lpmos/models/bip/qpvb3.scs
Reading file:  /opt/pdk/xfab/XKIT/xh018/cadence/v10_0/spectre/v10_0_2/lpmos/models/bip/qpvc3.scs
Reading file:  /opt/pdk/xfab/XKIT/xh018/cadence/v10_0/spectre/v10_0_2/lpmos/models/bip/qnva.scs
Reading file:  /opt/pdk/xfab/XKIT/xh018/cadence/v10_0/spectre/v10_0_2/lpmos/models/bip/qnvb.scs
Reading file:  /opt/pdk/xfab/XKIT/xh018/cadence/v10_0/spectre/v10_0_2/lpmos/models/bip/qnvba.scs
Reading file:  /opt/pdk/xfab/XKIT/xh018/cadence/v10_0/spectre/v10_0_2/lpmos/models/bip/qnvbb.scs
Reading file:  /opt/pdk/xfab/XKIT/xh018/cadence/v10_0/spectre/v10_0_2/lpmos/models/bip/qnvc.scs
Reading file:  /opt/pdk/xfab/XKIT/xh018/cadence/v10_0/spectre/v10_0_2/lpmos/models/bip/qnvca.scs
Reading file:  /opt/pdk/xfab/XKIT/xh018/cadence/v10_0/spectre/v10_0_2/lpmos/models/bip/qnvcb.scs
Reading file:  /opt/pdk/xfab/XKIT/xh018/cadence/v10_0/spectre/v10_0_2/lpmos/models/bip/qpvhscr.scs
Reading file:  /opt/pdk/xfab/XKIT/xh018/cadence/v10_0/spectre/v10_0_2/lpmos/models/bip/qpvascr.scs
Reading file:  /opt/pdk/xfab/XKIT/xh018/cadence/v10_0/spectre/v10_0_2/lpmos/models/bip/qpvhbscr.scs
Reading file:  /opt/pdk/xfab/XKIT/xh018/cadence/v10_0/spectre/v10_0_2/lpmos/models/bip/qpv_pa.scs
Reading file:  /opt/pdk/xfab/XKIT/xh018/cadence/v10_0/spectre/v10_0_2/lpmos/models/bip/qpv_pb.scs
Reading file:  /opt/pdk/xfab/XKIT/xh018/cadence/v10_0/spectre/v10_0_2/lpmos/models/bip/qpv_pc.scs
Reading file:  /opt/pdk/xfab/XKIT/xh018/cadence/v10_0/spectre/v10_0_2/lpmos/models/bip/qpv_pd.scs
Reading file:  /opt/pdk/xfab/XKIT/xh018/cadence/v10_0/spectre/v10_0_2/lpmos/models/bip/qpv_pe.scs
Reading file:  /opt/pdk/xfab/XKIT/xh018/cadence/v10_0/spectre/v10_0_2/lpmos/models/bip/qpv_pf.scs
Reading file:  /opt/pdk/xfab/XKIT/xh018/cadence/v10_0/spectre/v10_0_2/lpmos/models/bip/qpl_pa.scs
Reading file:  /opt/pdk/xfab/XKIT/xh018/cadence/v10_0/spectre/v10_0_2/lpmos/models/bip/qpl_pb.scs
Reading file:  /opt/pdk/xfab/XKIT/xh018/cadence/v10_0/spectre/v10_0_2/lpmos/models/bip/qpl_pc.scs
Reading file:  /opt/pdk/xfab/XKIT/xh018/cadence/v10_0/spectre/v10_0_2/lpmos/models/bip/qpl_pd.scs
Reading file:  /opt/pdk/xfab/XKIT/xh018/cadence/v10_0/spectre/v10_0_2/lpmos/models/bip/qpl_pe.scs
Reading file:  /opt/pdk/xfab/XKIT/xh018/cadence/v10_0/spectre/v10_0_2/lpmos/models/bip/qpl_pf.scs
Reading file:  /opt/pdk/xfab/XKIT/xh018/cadence/v10_0/spectre/v10_0_2/lpmos/models/bip/qnl_pa.scs
Reading file:  /opt/pdk/xfab/XKIT/xh018/cadence/v10_0/spectre/v10_0_2/lpmos/models/bip/qnl_pb.scs
Reading file:  /opt/pdk/xfab/XKIT/xh018/cadence/v10_0/spectre/v10_0_2/lpmos/models/bip/qnl_pc.scs
Reading file:  /opt/pdk/xfab/XKIT/xh018/cadence/v10_0/spectre/v10_0_2/lpmos/models/bip/qnl_pd.scs
Reading file:  /opt/pdk/xfab/XKIT/xh018/cadence/v10_0/spectre/v10_0_2/lpmos/models/bip/qnl_pe.scs
Reading file:  /opt/pdk/xfab/XKIT/xh018/cadence/v10_0/spectre/v10_0_2/lpmos/models/bip/qnl_pf.scs
Reading file:  /opt/pdk/xfab/XKIT/xh018/cadence/v10_0/spectre/v10_0_2/lpmos/cap.scs
Reading file:  /opt/pdk/xfab/XKIT/xh018/cadence/v10_0/spectre/v10_0_2/lpmos/models/cap/tm_cap.scs
Reading file:  /opt/pdk/xfab/XKIT/xh018/cadence/v10_0/spectre/v10_0_2/lpmos/models/cap/csandwt3.scs
Reading file:  /opt/pdk/xfab/XKIT/xh018/cadence/v10_0/spectre/v10_0_2/lpmos/models/cap/csandwt4.scs
Reading file:  /opt/pdk/xfab/XKIT/xh018/cadence/v10_0/spectre/v10_0_2/lpmos/models/cap/csandwt5.scs
Reading file:  /opt/pdk/xfab/XKIT/xh018/cadence/v10_0/spectre/v10_0_2/lpmos/models/cap/csf2p.scs
Reading file:  /opt/pdk/xfab/XKIT/xh018/cadence/v10_0/spectre/v10_0_2/lpmos/models/cap/csf3p.scs
Reading file:  /opt/pdk/xfab/XKIT/xh018/cadence/v10_0/spectre/v10_0_2/lpmos/models/cap/csf3.scs
Reading file:  /opt/pdk/xfab/XKIT/xh018/cadence/v10_0/spectre/v10_0_2/lpmos/models/cap/csf4.scs
Reading file:  /opt/pdk/xfab/XKIT/xh018/cadence/v10_0/spectre/v10_0_2/lpmos/models/cap/csf5.scs
Reading file:  /opt/pdk/xfab/XKIT/xh018/cadence/v10_0/spectre/v10_0_2/lpmos/models/cap/csft4.scs
Reading file:  /opt/pdk/xfab/XKIT/xh018/cadence/v10_0/spectre/v10_0_2/lpmos/models/cap/csft5.scs
Reading file:  /opt/pdk/xfab/XKIT/xh018/cadence/v10_0/spectre/v10_0_2/lpmos/models/cap/csft6.scs
Reading file:  /opt/pdk/xfab/XKIT/xh018/cadence/v10_0/spectre/v10_0_2/lpmos/models/cap/csf3a.scs
Reading file:  /opt/pdk/xfab/XKIT/xh018/cadence/v10_0/spectre/v10_0_2/lpmos/models/cap/csf4a.scs
Reading file:  /opt/pdk/xfab/XKIT/xh018/cadence/v10_0/spectre/v10_0_2/lpmos/models/cap/csf5a.scs
Reading file:  /opt/pdk/xfab/XKIT/xh018/cadence/v10_0/spectre/v10_0_2/lpmos/models/cap/csft4a.scs
Reading file:  /opt/pdk/xfab/XKIT/xh018/cadence/v10_0/spectre/v10_0_2/lpmos/models/cap/csft5a.scs
Reading file:  /opt/pdk/xfab/XKIT/xh018/cadence/v10_0/spectre/v10_0_2/lpmos/models/cap/csft6a.scs
Reading file:  /opt/pdk/xfab/XKIT/xh018/cadence/v10_0/spectre/v10_0_2/lpmos/models/cap/cif3a.scs
Reading file:  /opt/pdk/xfab/XKIT/xh018/cadence/v10_0/spectre/v10_0_2/lpmos/models/cap/cif4a.scs
Reading file:  /opt/pdk/xfab/XKIT/xh018/cadence/v10_0/spectre/v10_0_2/lpmos/models/cap/cif5a.scs
Reading file:  /opt/pdk/xfab/XKIT/xh018/cadence/v10_0/spectre/v10_0_2/lpmos/models/cap/cift4a.scs
Reading file:  /opt/pdk/xfab/XKIT/xh018/cadence/v10_0/spectre/v10_0_2/lpmos/models/cap/cift5a.scs
Reading file:  /opt/pdk/xfab/XKIT/xh018/cadence/v10_0/spectre/v10_0_2/lpmos/models/cap/cift6a.scs
Reading file:  /opt/pdk/xfab/XKIT/xh018/cadence/v10_0/spectre/v10_0_2/lpmos/models/cap/cmm3.scs
Reading file:  /opt/pdk/xfab/XKIT/xh018/cadence/v10_0/spectre/v10_0_2/lpmos/models/cap/cmm4t.scs
Reading file:  /opt/pdk/xfab/XKIT/xh018/cadence/v10_0/spectre/v10_0_2/lpmos/models/cap/cmm4.scs
Reading file:  /opt/pdk/xfab/XKIT/xh018/cadence/v10_0/spectre/v10_0_2/lpmos/models/cap/cmm5t.scs
Reading file:  /opt/pdk/xfab/XKIT/xh018/cadence/v10_0/spectre/v10_0_2/lpmos/models/cap/cmm6t.scs
Reading file:  /opt/pdk/xfab/XKIT/xh018/cadence/v10_0/spectre/v10_0_2/lpmos/models/cap/cdmm4.scs
Reading file:  /opt/pdk/xfab/XKIT/xh018/cadence/v10_0/spectre/v10_0_2/lpmos/models/cap/cdmm4t.scs
Reading file:  /opt/pdk/xfab/XKIT/xh018/cadence/v10_0/spectre/v10_0_2/lpmos/models/cap/ctmm5.scs
Reading file:  /opt/pdk/xfab/XKIT/xh018/cadence/v10_0/spectre/v10_0_2/lpmos/models/cap/ctmm5t.scs
Reading file:  /opt/pdk/xfab/XKIT/xh018/cadence/v10_0/spectre/v10_0_2/lpmos/models/cap/cmmh3.scs
Reading file:  /opt/pdk/xfab/XKIT/xh018/cadence/v10_0/spectre/v10_0_2/lpmos/models/cap/cmmh4t.scs
Reading file:  /opt/pdk/xfab/XKIT/xh018/cadence/v10_0/spectre/v10_0_2/lpmos/models/cap/cmmh4.scs
Reading file:  /opt/pdk/xfab/XKIT/xh018/cadence/v10_0/spectre/v10_0_2/lpmos/models/cap/cmmh5t.scs
Reading file:  /opt/pdk/xfab/XKIT/xh018/cadence/v10_0/spectre/v10_0_2/lpmos/models/cap/cmmh6t.scs
Reading file:  /opt/pdk/xfab/XKIT/xh018/cadence/v10_0/spectre/v10_0_2/lpmos/models/cap/cdmmh4.scs
Reading file:  /opt/pdk/xfab/XKIT/xh018/cadence/v10_0/spectre/v10_0_2/lpmos/models/cap/cdmmh4t.scs
Reading file:  /opt/pdk/xfab/XKIT/xh018/cadence/v10_0/spectre/v10_0_2/lpmos/models/cap/ctmmh5.scs
Reading file:  /opt/pdk/xfab/XKIT/xh018/cadence/v10_0/spectre/v10_0_2/lpmos/models/cap/ctmmh5t.scs
Reading file:  /opt/pdk/xfab/XKIT/xh018/cadence/v10_0/spectre/v10_0_2/lpmos/models/cap/mosvc.scs
Reading file:  /opt/pdk/xfab/XKIT/xh018/cadence/v10_0/spectre/v10_0_2/lpmos/models/cap/mosvc_pmos.scs
Reading file:  /opt/pdk/xfab/XKIT/xh018/cadence/v10_0/spectre/v10_0_2/lpmos/models/cap/mosvci.scs
Reading file:  /opt/pdk/xfab/XKIT/xh018/cadence/v10_0/spectre/v10_0_2/lpmos/models/cap/mosvci_nmos.scs
Reading file:  /opt/pdk/xfab/XKIT/xh018/cadence/v10_0/spectre/v10_0_2/lpmos/models/cap/mosvci_m.scs
Reading file:  /opt/pdk/xfab/XKIT/xh018/cadence/v10_0/spectre/v10_0_2/lpmos/models/cap/mosvc3.scs
Reading file:  /opt/pdk/xfab/XKIT/xh018/cadence/v10_0/spectre/v10_0_2/lpmos/models/cap/mosvc3_pmos.scs
Reading file:  /opt/pdk/xfab/XKIT/xh018/cadence/v10_0/spectre/v10_0_2/lpmos/models/cap/mosvc3i.scs
Reading file:  /opt/pdk/xfab/XKIT/xh018/cadence/v10_0/spectre/v10_0_2/lpmos/models/cap/mosvc3i_nmos.scs
Reading file:  /opt/pdk/xfab/XKIT/xh018/cadence/v10_0/spectre/v10_0_2/lpmos/models/cap/mosvc3i_m.scs
Reading file:  /opt/pdk/xfab/XKIT/xh018/cadence/v10_0/spectre/v10_0_2/lpmos/models/cap/cpod.scs
Reading file:  /opt/pdk/xfab/XKIT/xh018/cadence/v10_0/spectre/v10_0_2/lpmos/models/cap/cpod_i.scs
Reading file:  /opt/pdk/xfab/XKIT/xh018/cadence/v10_0/spectre/v10_0_2/lpmos/models/cap/cpodhv.scs
Reading file:  /opt/pdk/xfab/XKIT/xh018/cadence/v10_0/spectre/v10_0_2/lpmos/models/cap/cpodhv_i.scs
Reading file:  /opt/pdk/xfab/XKIT/xh018/cadence/v10_0/spectre/v10_0_2/lpmos/models/cap/cp1sub.scs
Reading file:  /opt/pdk/xfab/XKIT/xh018/cadence/v10_0/spectre/v10_0_2/lpmos/models/cap/cp1suba.scs
Reading file:  /opt/pdk/xfab/XKIT/xh018/cadence/v10_0/spectre/v10_0_2/lpmos/models/cap/cp1subp.scs
Reading file:  /opt/pdk/xfab/XKIT/xh018/cadence/v10_0/spectre/v10_0_2/lpmos/models/cap/tag_25v.scs
Reading file:  /opt/pdk/xfab/XKIT/xh018/cadence/v10_0/spectre/v10_0_2/lpmos/models/cap/tag_60v.scs
Reading file:  /opt/pdk/xfab/XKIT/xh018/cadence/v10_0/spectre/v10_0_2/lpmos/dio.scs
Reading file:  /opt/pdk/xfab/XKIT/xh018/cadence/v10_0/spectre/v10_0_2/lpmos/models/dio/tm_dio.scs
Reading file:  /opt/pdk/xfab/XKIT/xh018/cadence/v10_0/spectre/v10_0_2/lpmos/models/dio/dn.scs
Reading file:  /opt/pdk/xfab/XKIT/xh018/cadence/v10_0/spectre/v10_0_2/lpmos/models/dio/dp.scs
Reading file:  /opt/pdk/xfab/XKIT/xh018/cadence/v10_0/spectre/v10_0_2/lpmos/models/dio/dnw.scs
Reading file:  /opt/pdk/xfab/XKIT/xh018/cadence/v10_0/spectre/v10_0_2/lpmos/models/dio/dn3.scs
Reading file:  /opt/pdk/xfab/XKIT/xh018/cadence/v10_0/spectre/v10_0_2/lpmos/models/dio/dnn3.scs
Reading file:  /opt/pdk/xfab/XKIT/xh018/cadence/v10_0/spectre/v10_0_2/lpmos/models/dio/dp3.scs
Reading file:  /opt/pdk/xfab/XKIT/xh018/cadence/v10_0/spectre/v10_0_2/lpmos/models/dio/dnw3.scs
Reading file:  /opt/pdk/xfab/XKIT/xh018/cadence/v10_0/spectre/v10_0_2/lpmos/models/dio/ddnwmv.scs
Reading file:  /opt/pdk/xfab/XKIT/xh018/cadence/v10_0/spectre/v10_0_2/lpmos/models/dio/dpdnwmv.scs
Reading file:  /opt/pdk/xfab/XKIT/xh018/cadence/v10_0/spectre/v10_0_2/lpmos/models/dio/dipdnwmv.scs
Reading file:  /opt/pdk/xfab/XKIT/xh018/cadence/v10_0/spectre/v10_0_2/lpmos/models/dio/ddnw.scs
Reading file:  /opt/pdk/xfab/XKIT/xh018/cadence/v10_0/spectre/v10_0_2/lpmos/models/dio/ddnwa.scs
Reading file:  /opt/pdk/xfab/XKIT/xh018/cadence/v10_0/spectre/v10_0_2/lpmos/models/dio/dpdnw.scs
Reading file:  /opt/pdk/xfab/XKIT/xh018/cadence/v10_0/spectre/v10_0_2/lpmos/models/dio/dipdnw.scs
Reading file:  /opt/pdk/xfab/XKIT/xh018/cadence/v10_0/spectre/v10_0_2/lpmos/models/dio/dnhpw.scs
Reading file:  /opt/pdk/xfab/XKIT/xh018/cadence/v10_0/spectre/v10_0_2/lpmos/models/dio/dnhpwa.scs
Reading file:  /opt/pdk/xfab/XKIT/xh018/cadence/v10_0/spectre/v10_0_2/lpmos/models/dio/dphnw.scs
Reading file:  /opt/pdk/xfab/XKIT/xh018/cadence/v10_0/spectre/v10_0_2/lpmos/models/dio/dphnwa.scs
Reading file:  /opt/pdk/xfab/XKIT/xh018/cadence/v10_0/spectre/v10_0_2/lpmos/models/dio/dhpw.scs
Reading file:  /opt/pdk/xfab/XKIT/xh018/cadence/v10_0/spectre/v10_0_2/lpmos/models/dio/dhnw.scs
Reading file:  /opt/pdk/xfab/XKIT/xh018/cadence/v10_0/spectre/v10_0_2/lpmos/models/dio/dndf.scs
Reading file:  /opt/pdk/xfab/XKIT/xh018/cadence/v10_0/spectre/v10_0_2/lpmos/models/dio/dpdwhn.scs
Reading file:  /opt/pdk/xfab/XKIT/xh018/cadence/v10_0/spectre/v10_0_2/lpmos/models/dio/dwhn.scs
Reading file:  /opt/pdk/xfab/XKIT/xh018/cadence/v10_0/spectre/v10_0_2/lpmos/models/dio/dpwhn.scs
Reading file:  /opt/pdk/xfab/XKIT/xh018/cadence/v10_0/spectre/v10_0_2/lpmos/models/dio/dpndf.scs
Reading file:  /opt/pdk/xfab/XKIT/xh018/cadence/v10_0/spectre/v10_0_2/lpmos/models/dio/dpdddnw.scs
Reading file:  /opt/pdk/xfab/XKIT/xh018/cadence/v10_0/spectre/v10_0_2/lpmos/models/dio/ddpldnw.scs
Reading file:  /opt/pdk/xfab/XKIT/xh018/cadence/v10_0/spectre/v10_0_2/lpmos/models/dio/dn3dpl.scs
Reading file:  /opt/pdk/xfab/XKIT/xh018/cadence/v10_0/spectre/v10_0_2/lpmos/models/dio/dbn.scs
Reading file:  /opt/pdk/xfab/XKIT/xh018/cadence/v10_0/spectre/v10_0_2/lpmos/models/dio/dpol.scs
Reading file:  /opt/pdk/xfab/XKIT/xh018/cadence/v10_0/spectre/v10_0_2/lpmos/models/dio/dnpdd_scr.scs
Reading file:  /opt/pdk/xfab/XKIT/xh018/cadence/v10_0/spectre/v10_0_2/lpmos/models/dio/dpdd_scr.scs
Reading file:  /opt/pdk/xfab/XKIT/xh018/cadence/v10_0/spectre/v10_0_2/lpmos/models/dio/dsb.scs
Reading file:  /opt/pdk/xfab/XKIT/xh018/cadence/v10_0/spectre/v10_0_2/lpmos/models/dio/dsba.scs
Reading file:  /opt/pdk/xfab/XKIT/xh018/cadence/v10_0/spectre/v10_0_2/lpmos/models/dio/dsba_qp1.scs
Reading file:  /opt/pdk/xfab/XKIT/xh018/cadence/v10_0/spectre/v10_0_2/lpmos/models/dio/dnp20.scs
Reading file:  /opt/pdk/xfab/XKIT/xh018/cadence/v10_0/spectre/v10_0_2/lpmos/models/dio/dpp20.scs
Reading file:  /opt/pdk/xfab/XKIT/xh018/cadence/v10_0/spectre/v10_0_2/lpmos/models/dio/dn3sci.scs
Reading file:  /opt/pdk/xfab/XKIT/xh018/cadence/v10_0/spectre/v10_0_2/lpmos/models/dio/dscidnwmv.scs
Reading file:  /opt/pdk/xfab/XKIT/xh018/cadence/v10_0/spectre/v10_0_2/lpmos/mos.scs
Reading file:  /opt/pdk/xfab/XKIT/xh018/cadence/v10_0/spectre/v10_0_2/lpmos/models/mos/tm_mos.scs
Reading file:  /opt/pdk/xfab/XKIT/xh018/cadence/v10_0/spectre/v10_0_2/lpmos/models/mos/ne.scs
Reading file:  /opt/pdk/xfab/XKIT/xh018/cadence/v10_0/spectre/v10_0_2/lpmos/models/mos/nei.scs
Reading file:  /opt/pdk/xfab/XKIT/xh018/cadence/v10_0/spectre/v10_0_2/lpmos/models/mos/nei_6.scs
Reading file:  /opt/pdk/xfab/XKIT/xh018/cadence/v10_0/spectre/v10_0_2/lpmos/models/mos/nei_m_6.scs
Reading file:  /opt/pdk/xfab/XKIT/xh018/cadence/v10_0/spectre/v10_0_2/lpmos/models/mos/nei_a_6.scs
Reading file:  /opt/pdk/xfab/XKIT/xh018/cadence/v10_0/spectre/v10_0_2/lpmos/models/mos/pe.scs
Reading file:  /opt/pdk/xfab/XKIT/xh018/cadence/v10_0/spectre/v10_0_2/lpmos/models/mos/pe_5.scs
Reading file:  /opt/pdk/xfab/XKIT/xh018/cadence/v10_0/spectre/v10_0_2/lpmos/models/mos/pei.scs
Reading file:  /opt/pdk/xfab/XKIT/xh018/cadence/v10_0/spectre/v10_0_2/lpmos/models/mos/pei_5.scs
Reading file:  /opt/pdk/xfab/XKIT/xh018/cadence/v10_0/spectre/v10_0_2/lpmos/models/mos/pei_m_5.scs
Reading file:  /opt/pdk/xfab/XKIT/xh018/cadence/v10_0/spectre/v10_0_2/lpmos/models/mos/pei_a_5.scs
Reading file:  /opt/pdk/xfab/XKIT/xh018/cadence/v10_0/spectre/v10_0_2/lpmos/models/mos/nel.scs
Reading file:  /opt/pdk/xfab/XKIT/xh018/cadence/v10_0/spectre/v10_0_2/lpmos/models/mos/neli.scs
Reading file:  /opt/pdk/xfab/XKIT/xh018/cadence/v10_0/spectre/v10_0_2/lpmos/models/mos/neli_6.scs
Reading file:  /opt/pdk/xfab/XKIT/xh018/cadence/v10_0/spectre/v10_0_2/lpmos/models/mos/neli_m_6.scs
Reading file:  /opt/pdk/xfab/XKIT/xh018/cadence/v10_0/spectre/v10_0_2/lpmos/models/mos/pel.scs
Reading file:  /opt/pdk/xfab/XKIT/xh018/cadence/v10_0/spectre/v10_0_2/lpmos/models/mos/pel_5.scs
Reading file:  /opt/pdk/xfab/XKIT/xh018/cadence/v10_0/spectre/v10_0_2/lpmos/models/mos/peli.scs
Reading file:  /opt/pdk/xfab/XKIT/xh018/cadence/v10_0/spectre/v10_0_2/lpmos/models/mos/peli_5.scs
Reading file:  /opt/pdk/xfab/XKIT/xh018/cadence/v10_0/spectre/v10_0_2/lpmos/models/mos/peli_m_5.scs
Reading file:  /opt/pdk/xfab/XKIT/xh018/cadence/v10_0/spectre/v10_0_2/lpmos/models/mos/nn3.scs
Reading file:  /opt/pdk/xfab/XKIT/xh018/cadence/v10_0/spectre/v10_0_2/lpmos/models/mos/ne3.scs
Reading file:  /opt/pdk/xfab/XKIT/xh018/cadence/v10_0/spectre/v10_0_2/lpmos/models/mos/ne3i.scs
Reading file:  /opt/pdk/xfab/XKIT/xh018/cadence/v10_0/spectre/v10_0_2/lpmos/models/mos/ne3i_6.scs
Reading file:  /opt/pdk/xfab/XKIT/xh018/cadence/v10_0/spectre/v10_0_2/lpmos/models/mos/ne3i_m_6.scs
Reading file:  /opt/pdk/xfab/XKIT/xh018/cadence/v10_0/spectre/v10_0_2/lpmos/models/mos/ne3i_a_6.scs
Reading file:  /opt/pdk/xfab/XKIT/xh018/cadence/v10_0/spectre/v10_0_2/lpmos/models/mos/pe3.scs
Reading file:  /opt/pdk/xfab/XKIT/xh018/cadence/v10_0/spectre/v10_0_2/lpmos/models/mos/pe3_5.scs
Reading file:  /opt/pdk/xfab/XKIT/xh018/cadence/v10_0/spectre/v10_0_2/lpmos/models/mos/pe3i.scs
Reading file:  /opt/pdk/xfab/XKIT/xh018/cadence/v10_0/spectre/v10_0_2/lpmos/models/mos/pe3i_5.scs
Reading file:  /opt/pdk/xfab/XKIT/xh018/cadence/v10_0/spectre/v10_0_2/lpmos/models/mos/pe3i_m_5.scs
Reading file:  /opt/pdk/xfab/XKIT/xh018/cadence/v10_0/spectre/v10_0_2/lpmos/models/mos/pe3i_a_5.scs
Reading file:  /opt/pdk/xfab/XKIT/xh018/cadence/v10_0/spectre/v10_0_2/lpmos/models/mos/pe3ln.scs
Reading file:  /opt/pdk/xfab/XKIT/xh018/cadence/v10_0/spectre/v10_0_2/lpmos/models/mos/pe3ln_5.scs
Reading file:  /opt/pdk/xfab/XKIT/xh018/cadence/v10_0/spectre/v10_0_2/lpmos/models/mos/pe3lni.scs
Reading file:  /opt/pdk/xfab/XKIT/xh018/cadence/v10_0/spectre/v10_0_2/lpmos/models/mos/pe3lni_5.scs
Reading file:  /opt/pdk/xfab/XKIT/xh018/cadence/v10_0/spectre/v10_0_2/lpmos/models/mos/pe3lni_m_5.scs
Reading file:  /opt/pdk/xfab/XKIT/xh018/cadence/v10_0/spectre/v10_0_2/lpmos/models/mos/nd3.scs
Reading file:  /opt/pdk/xfab/XKIT/xh018/cadence/v10_0/spectre/v10_0_2/lpmos/models/mos/nd3_mos1.scs
Reading file:  /opt/pdk/xfab/XKIT/xh018/cadence/v10_0/spectre/v10_0_2/lpmos/models/mos/nd3_mos2.scs
Reading file:  /opt/pdk/xfab/XKIT/xh018/cadence/v10_0/spectre/v10_0_2/lpmos/models/mos/nd3i.scs
Reading file:  /opt/pdk/xfab/XKIT/xh018/cadence/v10_0/spectre/v10_0_2/lpmos/models/mos/nd3i_mos1.scs
Reading file:  /opt/pdk/xfab/XKIT/xh018/cadence/v10_0/spectre/v10_0_2/lpmos/models/mos/nd3i_mos2.scs
Reading file:  /opt/pdk/xfab/XKIT/xh018/cadence/v10_0/spectre/v10_0_2/lpmos/models/mos/nd3i_6.scs
Reading file:  /opt/pdk/xfab/XKIT/xh018/cadence/v10_0/spectre/v10_0_2/lpmos/models/mos/nd3i_m_6.scs
Reading file:  /opt/pdk/xfab/XKIT/xh018/cadence/v10_0/spectre/v10_0_2/lpmos/models/mos/nelna.scs
Reading file:  /opt/pdk/xfab/XKIT/xh018/cadence/v10_0/spectre/v10_0_2/lpmos/models/mos/nelnai.scs
Reading file:  /opt/pdk/xfab/XKIT/xh018/cadence/v10_0/spectre/v10_0_2/lpmos/models/mos/nelnai_6.scs
Reading file:  /opt/pdk/xfab/XKIT/xh018/cadence/v10_0/spectre/v10_0_2/lpmos/models/mos/nelnai_m_6.scs
Reading file:  /opt/pdk/xfab/XKIT/xh018/cadence/v10_0/spectre/v10_0_2/lpmos/models/mos/ne3lna.scs
Reading file:  /opt/pdk/xfab/XKIT/xh018/cadence/v10_0/spectre/v10_0_2/lpmos/models/mos/ne3lnai.scs
Reading file:  /opt/pdk/xfab/XKIT/xh018/cadence/v10_0/spectre/v10_0_2/lpmos/models/mos/ne3lnai_6.scs
Reading file:  /opt/pdk/xfab/XKIT/xh018/cadence/v10_0/spectre/v10_0_2/lpmos/models/mos/ne3lnai_m_6.scs
Reading file:  /opt/pdk/xfab/XKIT/xh018/cadence/v10_0/spectre/v10_0_2/lpmos/models/mos/pe3lna.scs
Reading file:  /opt/pdk/xfab/XKIT/xh018/cadence/v10_0/spectre/v10_0_2/lpmos/models/mos/pe3lna_5.scs
Reading file:  /opt/pdk/xfab/XKIT/xh018/cadence/v10_0/spectre/v10_0_2/lpmos/models/mos/pe3lnai.scs
Reading file:  /opt/pdk/xfab/XKIT/xh018/cadence/v10_0/spectre/v10_0_2/lpmos/models/mos/pe3lnai_5.scs
Reading file:  /opt/pdk/xfab/XKIT/xh018/cadence/v10_0/spectre/v10_0_2/lpmos/models/mos/pe3lnai_m_5.scs
Reading file:  /opt/pdk/xfab/XKIT/xh018/cadence/v10_0/spectre/v10_0_2/lpmos/models/mos/nmma.scs
Reading file:  /opt/pdk/xfab/XKIT/xh018/cadence/v10_0/spectre/v10_0_2/lpmos/models/mos/jf_nmma.scs
Reading file:  /opt/pdk/xfab/XKIT/xh018/cadence/v10_0/spectre/v10_0_2/lpmos/models/mos/nmma_bjt.scs
Reading file:  /opt/pdk/xfab/XKIT/xh018/cadence/v10_0/spectre/v10_0_2/lpmos/models/mos/pmma.scs
Reading file:  /opt/pdk/xfab/XKIT/xh018/cadence/v10_0/spectre/v10_0_2/lpmos/models/mos/jf_pmma.scs
Reading file:  /opt/pdk/xfab/XKIT/xh018/cadence/v10_0/spectre/v10_0_2/lpmos/models/mos/pmma_bjt.scs
Reading file:  /opt/pdk/xfab/XKIT/xh018/cadence/v10_0/spectre/v10_0_2/lpmos/models/mos/nedi.scs
Reading file:  /opt/pdk/xfab/XKIT/xh018/cadence/v10_0/spectre/v10_0_2/lpmos/models/mos/nedi_bjt.scs
Reading file:  /opt/pdk/xfab/XKIT/xh018/cadence/v10_0/spectre/v10_0_2/lpmos/models/mos/nedia.scs
Reading file:  /opt/pdk/xfab/XKIT/xh018/cadence/v10_0/spectre/v10_0_2/lpmos/models/mos/nedia_bjt.scs
Reading file:  /opt/pdk/xfab/XKIT/xh018/cadence/v10_0/spectre/v10_0_2/lpmos/models/mos/ped2.scs
Reading file:  /opt/pdk/xfab/XKIT/xh018/cadence/v10_0/spectre/v10_0_2/lpmos/models/mos/ped2_bjt.scs
Reading file:  /opt/pdk/xfab/XKIT/xh018/cadence/v10_0/spectre/v10_0_2/lpmos/models/mos/ped.scs
Reading file:  /opt/pdk/xfab/XKIT/xh018/cadence/v10_0/spectre/v10_0_2/lpmos/models/mos/ped_bjt.scs
Reading file:  /opt/pdk/xfab/XKIT/xh018/cadence/v10_0/spectre/v10_0_2/lpmos/models/mos/nhv.scs
Reading file:  /opt/pdk/xfab/XKIT/xh018/cadence/v10_0/spectre/v10_0_2/lpmos/models/mos/nhv_mos2.scs
Reading file:  /opt/pdk/xfab/XKIT/xh018/cadence/v10_0/spectre/v10_0_2/lpmos/models/mos/nhv_bjt.scs
Reading file:  /opt/pdk/xfab/XKIT/xh018/cadence/v10_0/spectre/v10_0_2/lpmos/models/mos/nhhv.scs
Reading file:  /opt/pdk/xfab/XKIT/xh018/cadence/v10_0/spectre/v10_0_2/lpmos/models/mos/nhhv_mos2.scs
Reading file:  /opt/pdk/xfab/XKIT/xh018/cadence/v10_0/spectre/v10_0_2/lpmos/models/mos/nhhv_bjt.scs
Reading file:  /opt/pdk/xfab/XKIT/xh018/cadence/v10_0/spectre/v10_0_2/lpmos/models/mos/nmmc.scs
Reading file:  /opt/pdk/xfab/XKIT/xh018/cadence/v10_0/spectre/v10_0_2/lpmos/models/mos/nmmc_mos2.scs
Reading file:  /opt/pdk/xfab/XKIT/xh018/cadence/v10_0/spectre/v10_0_2/lpmos/models/mos/nmmc_bjt.scs
Reading file:  /opt/pdk/xfab/XKIT/xh018/cadence/v10_0/spectre/v10_0_2/lpmos/models/mos/nmmd.scs
Reading file:  /opt/pdk/xfab/XKIT/xh018/cadence/v10_0/spectre/v10_0_2/lpmos/models/mos/nmmd_mos2.scs
Reading file:  /opt/pdk/xfab/XKIT/xh018/cadence/v10_0/spectre/v10_0_2/lpmos/models/mos/nmmd_bjt.scs
Reading file:  /opt/pdk/xfab/XKIT/xh018/cadence/v10_0/spectre/v10_0_2/lpmos/models/mos/nmc.scs
Reading file:  /opt/pdk/xfab/XKIT/xh018/cadence/v10_0/spectre/v10_0_2/lpmos/models/mos/nmc_mos2.scs
Reading file:  /opt/pdk/xfab/XKIT/xh018/cadence/v10_0/spectre/v10_0_2/lpmos/models/mos/nmc_bjt.scs
Reading file:  /opt/pdk/xfab/XKIT/xh018/cadence/v10_0/spectre/v10_0_2/lpmos/models/mos/nma.scs
Reading file:  /opt/pdk/xfab/XKIT/xh018/cadence/v10_0/spectre/v10_0_2/lpmos/models/mos/nma_bjt.scs
Reading file:  /opt/pdk/xfab/XKIT/xh018/cadence/v10_0/spectre/v10_0_2/lpmos/models/mos/phv.scs
Reading file:  /opt/pdk/xfab/XKIT/xh018/cadence/v10_0/spectre/v10_0_2/lpmos/models/mos/phv_mos2.scs
Reading file:  /opt/pdk/xfab/XKIT/xh018/cadence/v10_0/spectre/v10_0_2/lpmos/models/mos/phv_bjt.scs
Reading file:  /opt/pdk/xfab/XKIT/xh018/cadence/v10_0/spectre/v10_0_2/lpmos/models/mos/phhv.scs
Reading file:  /opt/pdk/xfab/XKIT/xh018/cadence/v10_0/spectre/v10_0_2/lpmos/models/mos/phhv_mos2.scs
Reading file:  /opt/pdk/xfab/XKIT/xh018/cadence/v10_0/spectre/v10_0_2/lpmos/models/mos/phhv_bjt.scs
Reading file:  /opt/pdk/xfab/XKIT/xh018/cadence/v10_0/spectre/v10_0_2/lpmos/models/mos/pmc.scs
Reading file:  /opt/pdk/xfab/XKIT/xh018/cadence/v10_0/spectre/v10_0_2/lpmos/models/mos/pmc_mos2.scs
Reading file:  /opt/pdk/xfab/XKIT/xh018/cadence/v10_0/spectre/v10_0_2/lpmos/models/mos/pmc_bjt.scs
Reading file:  /opt/pdk/xfab/XKIT/xh018/cadence/v10_0/spectre/v10_0_2/lpmos/models/mos/pmmc.scs
Reading file:  /opt/pdk/xfab/XKIT/xh018/cadence/v10_0/spectre/v10_0_2/lpmos/models/mos/pmmc_mos2.scs
Reading file:  /opt/pdk/xfab/XKIT/xh018/cadence/v10_0/spectre/v10_0_2/lpmos/models/mos/pmmc_bjt.scs
Reading file:  /opt/pdk/xfab/XKIT/xh018/cadence/v10_0/spectre/v10_0_2/lpmos/models/mos/pma.scs
Reading file:  /opt/pdk/xfab/XKIT/xh018/cadence/v10_0/spectre/v10_0_2/lpmos/models/mos/pma_bjt.scs
Reading file:  /opt/pdk/xfab/XKIT/xh018/cadence/v10_0/spectre/v10_0_2/lpmos/models/mos/pmb.scs
Reading file:  /opt/pdk/xfab/XKIT/xh018/cadence/v10_0/spectre/v10_0_2/lpmos/models/mos/nesvt.scs
Reading file:  /opt/pdk/xfab/XKIT/xh018/cadence/v10_0/spectre/v10_0_2/lpmos/models/mos/nesvti.scs
Reading file:  /opt/pdk/xfab/XKIT/xh018/cadence/v10_0/spectre/v10_0_2/lpmos/models/mos/nesvti_6.scs
Reading file:  /opt/pdk/xfab/XKIT/xh018/cadence/v10_0/spectre/v10_0_2/lpmos/models/mos/nesvti_m_6.scs
Reading file:  /opt/pdk/xfab/XKIT/xh018/cadence/v10_0/spectre/v10_0_2/lpmos/models/mos/pesvt.scs
Reading file:  /opt/pdk/xfab/XKIT/xh018/cadence/v10_0/spectre/v10_0_2/lpmos/models/mos/pesvt_5.scs
Reading file:  /opt/pdk/xfab/XKIT/xh018/cadence/v10_0/spectre/v10_0_2/lpmos/models/mos/pesvti.scs
Reading file:  /opt/pdk/xfab/XKIT/xh018/cadence/v10_0/spectre/v10_0_2/lpmos/models/mos/pesvti_5.scs
Reading file:  /opt/pdk/xfab/XKIT/xh018/cadence/v10_0/spectre/v10_0_2/lpmos/models/mos/pesvti_m_5.scs
Reading file:  /opt/pdk/xfab/XKIT/xh018/cadence/v10_0/spectre/v10_0_2/lpmos/models/mos/nhvd.scs
Reading file:  /opt/pdk/xfab/XKIT/xh018/cadence/v10_0/spectre/v10_0_2/lpmos/models/mos/nhvd_bjt.scs
Reading file:  /opt/pdk/xfab/XKIT/xh018/cadence/v10_0/spectre/v10_0_2/lpmos/models/mos/nhhvd.scs
Reading file:  /opt/pdk/xfab/XKIT/xh018/cadence/v10_0/spectre/v10_0_2/lpmos/models/mos/nhhvd_bjt.scs
Reading file:  /opt/pdk/xfab/XKIT/xh018/cadence/v10_0/spectre/v10_0_2/lpmos/photo.scs
Reading file:  /opt/pdk/xfab/XKIT/xh018/cadence/v10_0/spectre/v10_0_2/lpmos/models/photo/tm_pho.scs
Reading file:  /opt/pdk/xfab/XKIT/xh018/cadence/v10_0/spectre/v10_0_2/lpmos/models/photo/dphoa.scs
Reading file:  /opt/pdk/xfab/XKIT/xh018/cadence/v10_0/spectre/v10_0_2/lpmos/models/photo/dpho.va
Reading link:  /opt/tools/cadence/installs/SPECTRE241/tools.lnx86/spectre/etc/ahdl/constants.h
Reading file:  /opt/tools/cadence/installs/SPECTRE241/tools.lnx86/spectre/etc/ahdl/constants.vams
Reading link:  /opt/tools/cadence/installs/SPECTRE241/tools.lnx86/spectre/etc/ahdl/discipline.h
Reading file:  /opt/tools/cadence/installs/SPECTRE241/tools.lnx86/spectre/etc/ahdl/disciplines.vams
Reading file:  /opt/pdk/xfab/XKIT/xh018/cadence/v10_0/spectre/v10_0_2/lpmos/models/photo/dphob.scs
Reading file:  /opt/pdk/xfab/XKIT/xh018/cadence/v10_0/spectre/v10_0_2/lpmos/models/photo/dphoc.scs
Reading file:  /opt/pdk/xfab/XKIT/xh018/cadence/v10_0/spectre/v10_0_2/lpmos/models/photo/iphoto_uv.va
Reading file:  /opt/pdk/xfab/XKIT/xh018/cadence/v10_0/spectre/v10_0_2/lpmos/models/photo/dphoc_cat.scs
Reading file:  /opt/pdk/xfab/XKIT/xh018/cadence/v10_0/spectre/v10_0_2/lpmos/models/photo/dphoc0.scs
Reading file:  /opt/pdk/xfab/XKIT/xh018/cadence/v10_0/spectre/v10_0_2/lpmos/models/photo/dphoc0_cat.scs
Reading file:  /opt/pdk/xfab/XKIT/xh018/cadence/v10_0/spectre/v10_0_2/lpmos/models/photo/dphocfp.scs
Reading file:  /opt/pdk/xfab/XKIT/xh018/cadence/v10_0/spectre/v10_0_2/lpmos/models/photo/dphocfp_cat.scs
Reading file:  /opt/pdk/xfab/XKIT/xh018/cadence/v10_0/spectre/v10_0_2/lpmos/models/photo/dphod.scs
Reading file:  /opt/pdk/xfab/XKIT/xh018/cadence/v10_0/spectre/v10_0_2/lpmos/models/photo/dphod_an1.scs
Reading file:  /opt/pdk/xfab/XKIT/xh018/cadence/v10_0/spectre/v10_0_2/lpmos/models/photo/dphod_an2.scs
Reading file:  /opt/pdk/xfab/XKIT/xh018/cadence/v10_0/spectre/v10_0_2/lpmos/models/photo/dphod0.scs
Reading file:  /opt/pdk/xfab/XKIT/xh018/cadence/v10_0/spectre/v10_0_2/lpmos/models/photo/dphod0_an1.scs
Reading file:  /opt/pdk/xfab/XKIT/xh018/cadence/v10_0/spectre/v10_0_2/lpmos/models/photo/dphod0_an2.scs
Reading file:  /opt/pdk/xfab/XKIT/xh018/cadence/v10_0/spectre/v10_0_2/lpmos/models/photo/dphodfp.scs
Reading file:  /opt/pdk/xfab/XKIT/xh018/cadence/v10_0/spectre/v10_0_2/lpmos/models/photo/dphodfp_an1.scs
Reading file:  /opt/pdk/xfab/XKIT/xh018/cadence/v10_0/spectre/v10_0_2/lpmos/models/photo/dphodfp_an2.scs
Reading file:  /opt/pdk/xfab/XKIT/xh018/cadence/v10_0/spectre/v10_0_2/lpmos/models/photo/dspada0.scs
Reading file:  /opt/pdk/xfab/XKIT/xh018/cadence/v10_0/spectre/v10_0_2/lpmos/models/photo/ispad.va
Reading file:  /opt/pdk/xfab/XKIT/xh018/cadence/v10_0/spectre/v10_0_2/lpmos/models/photo/dapb.scs
Reading file:  /opt/pdk/xfab/XKIT/xh018/cadence/v10_0/spectre/v10_0_2/lpmos/models/photo/iphoto_apd_trig.va
Reading file:  /opt/pdk/xfab/XKIT/xh018/cadence/v10_0/spectre/v10_0_2/lpmos/models/photo/dapb_jun.scs
Reading file:  /opt/pdk/xfab/XKIT/xh018/cadence/v10_0/spectre/v10_0_2/lpmos/models/photo/dapb_trig.scs
Reading file:  /opt/pdk/xfab/XKIT/xh018/cadence/v10_0/spectre/v10_0_2/lpmos/models/photo/dapb0.scs
Reading file:  /opt/pdk/xfab/XKIT/xh018/cadence/v10_0/spectre/v10_0_2/lpmos/models/photo/dapb0_jun.scs
Reading file:  /opt/pdk/xfab/XKIT/xh018/cadence/v10_0/spectre/v10_0_2/lpmos/models/photo/dspb.scs
Reading file:  /opt/pdk/xfab/XKIT/xh018/cadence/v10_0/spectre/v10_0_2/lpmos/models/photo/ispad_trig.va
Reading file:  /opt/pdk/xfab/XKIT/xh018/cadence/v10_0/spectre/v10_0_2/lpmos/models/photo/dspb_jun.scs
Reading file:  /opt/pdk/xfab/XKIT/xh018/cadence/v10_0/spectre/v10_0_2/lpmos/models/photo/dspb_trig.scs
Reading file:  /opt/pdk/xfab/XKIT/xh018/cadence/v10_0/spectre/v10_0_2/lpmos/models/photo/dspb0.scs
Reading file:  /opt/pdk/xfab/XKIT/xh018/cadence/v10_0/spectre/v10_0_2/lpmos/models/photo/dspb0_jun.scs
Reading file:  /opt/pdk/xfab/XKIT/xh018/cadence/v10_0/spectre/v10_0_2/lpmos/models/photo/dspbfep.scs
Reading file:  /opt/pdk/xfab/XKIT/xh018/cadence/v10_0/spectre/v10_0_2/lpmos/models/photo/dapda.scs
Reading file:  /opt/pdk/xfab/XKIT/xh018/cadence/v10_0/spectre/v10_0_2/lpmos/models/photo/iphoto_apd.va
Reading file:  /opt/pdk/xfab/XKIT/xh018/cadence/v10_0/spectre/v10_0_2/lpmos/models/photo/dapda_cat.scs
Reading file:  /opt/pdk/xfab/XKIT/xh018/cadence/v10_0/spectre/v10_0_2/lpmos/models/photo/dapda0.scs
Reading file:  /opt/pdk/xfab/XKIT/xh018/cadence/v10_0/spectre/v10_0_2/lpmos/models/photo/dspada.scs
Reading file:  /opt/pdk/xfab/XKIT/xh018/cadence/v10_0/spectre/v10_0_2/lpmos/models/photo/dspada_cat.scs
Reading file:  /opt/pdk/xfab/XKIT/xh018/cadence/v10_0/spectre/v10_0_2/lpmos/res.scs
Reading file:  /opt/pdk/xfab/XKIT/xh018/cadence/v10_0/spectre/v10_0_2/lpmos/models/res/tm_res.scs
Reading file:  /opt/pdk/xfab/XKIT/xh018/cadence/v10_0/spectre/v10_0_2/lpmos/models/res/rdn.scs
Reading file:  /opt/pdk/xfab/XKIT/xh018/cadence/v10_0/spectre/v10_0_2/lpmos/models/res/rdn_esd.scs
Reading file:  /opt/pdk/xfab/XKIT/xh018/cadence/v10_0/spectre/v10_0_2/lpmos/models/res/rdp.scs
Reading file:  /opt/pdk/xfab/XKIT/xh018/cadence/v10_0/spectre/v10_0_2/lpmos/models/res/rdp_io.scs
Reading file:  /opt/pdk/xfab/XKIT/xh018/cadence/v10_0/spectre/v10_0_2/lpmos/models/res/rdp_esd.scs
Reading file:  /opt/pdk/xfab/XKIT/xh018/cadence/v10_0/spectre/v10_0_2/lpmos/models/res/rnw.scs
Reading file:  /opt/pdk/xfab/XKIT/xh018/cadence/v10_0/spectre/v10_0_2/lpmos/models/res/rnw_scr.scs
Reading file:  /opt/pdk/xfab/XKIT/xh018/cadence/v10_0/spectre/v10_0_2/lpmos/models/res/rdn3.scs
Reading file:  /opt/pdk/xfab/XKIT/xh018/cadence/v10_0/spectre/v10_0_2/lpmos/models/res/rdp3.scs
Reading file:  /opt/pdk/xfab/XKIT/xh018/cadence/v10_0/spectre/v10_0_2/lpmos/models/res/rnw3.scs
Reading file:  /opt/pdk/xfab/XKIT/xh018/cadence/v10_0/spectre/v10_0_2/lpmos/models/res/rnw3_scr.scs
Reading file:  /opt/pdk/xfab/XKIT/xh018/cadence/v10_0/spectre/v10_0_2/lpmos/models/res/rdnwmv.scs
Reading file:  /opt/pdk/xfab/XKIT/xh018/cadence/v10_0/spectre/v10_0_2/lpmos/models/res/rnp1.scs
Reading file:  /opt/pdk/xfab/XKIT/xh018/cadence/v10_0/spectre/v10_0_2/lpmos/models/res/rnp1_3.scs
Reading file:  /opt/pdk/xfab/XKIT/xh018/cadence/v10_0/spectre/v10_0_2/lpmos/models/res/rpp1.scs
Reading file:  /opt/pdk/xfab/XKIT/xh018/cadence/v10_0/spectre/v10_0_2/lpmos/models/res/rpp1_3.scs
Reading file:  /opt/pdk/xfab/XKIT/xh018/cadence/v10_0/spectre/v10_0_2/lpmos/models/res/rpp1s.scs
Reading file:  /opt/pdk/xfab/XKIT/xh018/cadence/v10_0/spectre/v10_0_2/lpmos/models/res/rpp1s_3.scs
Reading file:  /opt/pdk/xfab/XKIT/xh018/cadence/v10_0/spectre/v10_0_2/lpmos/models/res/rnp1h.scs
Reading file:  /opt/pdk/xfab/XKIT/xh018/cadence/v10_0/spectre/v10_0_2/lpmos/models/res/rnp1h_3.scs
Reading file:  /opt/pdk/xfab/XKIT/xh018/cadence/v10_0/spectre/v10_0_2/lpmos/models/res/rpp1k1.scs
Reading file:  /opt/pdk/xfab/XKIT/xh018/cadence/v10_0/spectre/v10_0_2/lpmos/models/res/rpp1k1_3.scs
Reading file:  /opt/pdk/xfab/XKIT/xh018/cadence/v10_0/spectre/v10_0_2/lpmos/models/res/rctdn.scs
Reading file:  /opt/pdk/xfab/XKIT/xh018/cadence/v10_0/spectre/v10_0_2/lpmos/models/res/rctdp.scs
Reading file:  /opt/pdk/xfab/XKIT/xh018/cadence/v10_0/spectre/v10_0_2/lpmos/models/res/rctp1.scs
Reading file:  /opt/pdk/xfab/XKIT/xh018/cadence/v10_0/spectre/v10_0_2/lpmos/models/res/rsildn.scs
Reading file:  /opt/pdk/xfab/XKIT/xh018/cadence/v10_0/spectre/v10_0_2/lpmos/models/res/rsildp.scs
Reading file:  /opt/pdk/xfab/XKIT/xh018/cadence/v10_0/spectre/v10_0_2/lpmos/models/res/rsilnp1.scs
Reading file:  /opt/pdk/xfab/XKIT/xh018/cadence/v10_0/spectre/v10_0_2/lpmos/models/res/rsilpp1.scs
Reading file:  /opt/pdk/xfab/XKIT/xh018/cadence/v10_0/spectre/v10_0_2/lpmos/models/res/rsbdn.scs
Reading file:  /opt/pdk/xfab/XKIT/xh018/cadence/v10_0/spectre/v10_0_2/lpmos/models/res/rsbdp.scs
Reading file:  /opt/pdk/xfab/XKIT/xh018/cadence/v10_0/spectre/v10_0_2/lpmos/models/res/rsbdn3.scs
Reading file:  /opt/pdk/xfab/XKIT/xh018/cadence/v10_0/spectre/v10_0_2/lpmos/models/res/rsbdp3.scs
Reading file:  /opt/pdk/xfab/XKIT/xh018/cadence/v10_0/spectre/v10_0_2/lpmos/models/res/rsbnp1.scs
Reading file:  /opt/pdk/xfab/XKIT/xh018/cadence/v10_0/spectre/v10_0_2/lpmos/models/res/rsbpp1.scs
Reading file:  /opt/pdk/xfab/XKIT/xh018/cadence/v10_0/spectre/v10_0_2/lpmos/models/res/rsbpp1k1.scs
Reading file:  /opt/pdk/xfab/XKIT/xh018/cadence/v10_0/spectre/v10_0_2/lpmos/models/res/rm1.scs
Reading file:  /opt/pdk/xfab/XKIT/xh018/cadence/v10_0/spectre/v10_0_2/lpmos/models/res/rm2.scs
Reading file:  /opt/pdk/xfab/XKIT/xh018/cadence/v10_0/spectre/v10_0_2/lpmos/models/res/rm3.scs
Reading file:  /opt/pdk/xfab/XKIT/xh018/cadence/v10_0/spectre/v10_0_2/lpmos/models/res/rm4.scs
Reading file:  /opt/pdk/xfab/XKIT/xh018/cadence/v10_0/spectre/v10_0_2/lpmos/models/res/rm5.scs
Reading file:  /opt/pdk/xfab/XKIT/xh018/cadence/v10_0/spectre/v10_0_2/lpmos/models/res/rmtp.scs
Reading file:  /opt/pdk/xfab/XKIT/xh018/cadence/v10_0/spectre/v10_0_2/lpmos/models/res/rmtpl.scs
Reading file:  /opt/pdk/xfab/XKIT/xh018/cadence/v10_0/spectre/v10_0_2/lpmos/models/res/pfuse.scs
Reading file:  /opt/pdk/xfab/XKIT/xh018/cadence/v10_0/spectre/v10_0_2/lpmos/models/res/s_res.scs
Time for NDB Parsing: CPU = 197.956 ms, elapsed = 736.634 ms.
Time accumulated: CPU = 367.332 ms, elapsed = 736.636 ms.
Peak resident memory used = 172 Mbytes.

Time for Elaboration: CPU = 17.645 ms, elapsed = 21.888 ms.
Time accumulated: CPU = 385.095 ms, elapsed = 758.786 ms.
Peak resident memory used = 172 Mbytes.


Notice from spectre during hierarchy flattening.
    The value 'psf' specified for the 'checklimitdest' option will no longer be supported in future releases. Use 'spectre -h' to see other recommended values for the 'checklimitdest' option.


Time for EDB Visiting: CPU = 1.166 ms, elapsed = 2.14696 ms.
Time accumulated: CPU = 386.369 ms, elapsed = 761.112 ms.
Peak resident memory used = 172 Mbytes.


Notice from spectre during initial setup.
    Multithreading is disabled due to the size of the design being too small.


Netlist title:
        // Generated for: spectre


Global user options:
         psfversion = 1.4.0
            vabstol = 1e-06
[...]
Reading file:  /opt/pdk/xfab/XKIT/xh018/cadence/v10_0/spectre/v10_0_2/lpmos/models/mos/ne3lnai_6.scs
Reading file:  /opt/pdk/xfab/XKIT/xh018/cadence/v10_0/spectre/v10_0_2/lpmos/models/mos/ne3lnai_m_6.scs
Reading file:  /opt/pdk/xfab/XKIT/xh018/cadence/v10_0/spectre/v10_0_2/lpmos/models/mos/pe3lna.scs
Reading file:  /opt/pdk/xfab/XKIT/xh018/cadence/v10_0/spectre/v10_0_2/lpmos/models/mos/pe3lna_5.scs
Reading file:  /opt/pdk/xfab/XKIT/xh018/cadence/v10_0/spectre/v10_0_2/lpmos/models/mos/pe3lnai.scs
Reading file:  /opt/pdk/xfab/XKIT/xh018/cadence/v10_0/spectre/v10_0_2/lpmos/models/mos/pe3lnai_5.scs
Reading file:  /opt/pdk/xfab/XKIT/xh018/cadence/v10_0/spectre/v10_0_2/lpmos/models/mos/pe3lnai_m_5.scs
Reading file:  /opt/pdk/xfab/XKIT/xh018/cadence/v10_0/spectre/v10_0_2/lpmos/models/mos/nmma.scs
Reading file:  /opt/pdk/xfab/XKIT/xh018/cadence/v10_0/spectre/v10_0_2/lpmos/models/mos/jf_nmma.scs
Reading file:  /opt/pdk/xfab/XKIT/xh018/cadence/v10_0/spectre/v10_0_2/lpmos/models/mos/nmma_bjt.scs
Reading file:  /opt/pdk/xfab/XKIT/xh018/cadence/v10_0/spectre/v10_0_2/lpmos/models/mos/pmma.scs
Reading file:  /opt/pdk/xfab/XKIT/xh018/cadence/v10_0/spectre/v10_0_2/lpmos/models/mos/jf_pmma.scs
Reading file:  /opt/pdk/xfab/XKIT/xh018/cadence/v10_0/spectre/v10_0_2/lpmos/models/mos/pmma_bjt.scs
Reading file:  /opt/pdk/xfab/XKIT/xh018/cadence/v10_0/spectre/v10_0_2/lpmos/models/mos/nedi.scs
Reading file:  /opt/pdk/xfab/XKIT/xh018/cadence/v10_0/spectre/v10_0_2/lpmos/models/mos/nedi_bjt.scs
Reading file:  /opt/pdk/xfab/XKIT/xh018/cadence/v10_0/spectre/v10_0_2/lpmos/models/mos/nedia.scs
Reading file:  /opt/pdk/xfab/XKIT/xh018/cadence/v10_0/spectre/v10_0_2/lpmos/models/mos/nedia_bjt.scs
Reading file:  /opt/pdk/xfab/XKIT/xh018/cadence/v10_0/spectre/v10_0_2/lpmos/models/mos/ped2.scs
Reading file:  /opt/pdk/xfab/XKIT/xh018/cadence/v10_0/spectre/v10_0_2/lpmos/models/mos/ped2_bjt.scs
Reading file:  /opt/pdk/xfab/XKIT/xh018/cadence/v10_0/spectre/v10_0_2/lpmos/models/mos/ped.scs
Reading file:  /opt/pdk/xfab/XKIT/xh018/cadence/v10_0/spectre/v10_0_2/lpmos/models/mos/ped_bjt.scs
Reading file:  /opt/pdk/xfab/XKIT/xh018/cadence/v10_0/spectre/v10_0_2/lpmos/models/mos/nhv.scs
Reading file:  /opt/pdk/xfab/XKIT/xh018/cadence/v10_0/spectre/v10_0_2/lpmos/models/mos/nhv_mos2.scs
Reading file:  /opt/pdk/xfab/XKIT/xh018/cadence/v10_0/spectre/v10_0_2/lpmos/models/mos/nhv_bjt.scs
Reading file:  /opt/pdk/xfab/XKIT/xh018/cadence/v10_0/spectre/v10_0_2/lpmos/models/mos/nhhv.scs
Reading file:  /opt/pdk/xfab/XKIT/xh018/cadence/v10_0/spectre/v10_0_2/lpmos/models/mos/nhhv_mos2.scs
Reading file:  /opt/pdk/xfab/XKIT/xh018/cadence/v10_0/spectre/v10_0_2/lpmos/models/mos/nhhv_bjt.scs
Reading file:  /opt/pdk/xfab/XKIT/xh018/cadence/v10_0/spectre/v10_0_2/lpmos/models/mos/nmmc.scs
Reading file:  /opt/pdk/xfab/XKIT/xh018/cadence/v10_0/spectre/v10_0_2/lpmos/models/mos/nmmc_mos2.scs
Reading file:  /opt/pdk/xfab/XKIT/xh018/cadence/v10_0/spectre/v10_0_2/lpmos/models/mos/nmmc_bjt.scs
Reading file:  /opt/pdk/xfab/XKIT/xh018/cadence/v10_0/spectre/v10_0_2/lpmos/models/mos/nmmd.scs
Reading file:  /opt/pdk/xfab/XKIT/xh018/cadence/v10_0/spectre/v10_0_2/lpmos/models/mos/nmmd_mos2.scs
Reading file:  /opt/pdk/xfab/XKIT/xh018/cadence/v10_0/spectre/v10_0_2/lpmos/models/mos/nmmd_bjt.scs
Reading file:  /opt/pdk/xfab/XKIT/xh018/cadence/v10_0/spectre/v10_0_2/lpmos/models/mos/nmc.scs
Reading file:  /opt/pdk/xfab/XKIT/xh018/cadence/v10_0/spectre/v10_0_2/lpmos/models/mos/nmc_mos2.scs
Reading file:  /opt/pdk/xfab/XKIT/xh018/cadence/v10_0/spectre/v10_0_2/lpmos/models/mos/nmc_bjt.scs
Reading file:  /opt/pdk/xfab/XKIT/xh018/cadence/v10_0/spectre/v10_0_2/lpmos/models/mos/nma.scs
Reading file:  /opt/pdk/xfab/XKIT/xh018/cadence/v10_0/spectre/v10_0_2/lpmos/models/mos/nma_bjt.scs
Reading file:  /opt/pdk/xfab/XKIT/xh018/cadence/v10_0/spectre/v10_0_2/lpmos/models/mos/phv.scs
Reading file:  /opt/pdk/xfab/XKIT/xh018/cadence/v10_0/spectre/v10_0_2/lpmos/models/mos/phv_mos2.scs
Reading file:  /opt/pdk/xfab/XKIT/xh018/cadence/v10_0/spectre/v10_0_2/lpmos/models/mos/phv_bjt.scs
Reading file:  /opt/pdk/xfab/XKIT/xh018/cadence/v10_0/spectre/v10_0_2/lpmos/models/mos/phhv.scs
Reading file:  /opt/pdk/xfab/XKIT/xh018/cadence/v10_0/spectre/v10_0_2/lpmos/models/mos/phhv_mos2.scs
Reading file:  /opt/pdk/xfab/XKIT/xh018/cadence/v10_0/spectre/v10_0_2/lpmos/models/mos/phhv_bjt.scs
Reading file:  /opt/pdk/xfab/XKIT/xh018/cadence/v10_0/spectre/v10_0_2/lpmos/models/mos/pmc.scs
Reading file:  /opt/pdk/xfab/XKIT/xh018/cadence/v10_0/spectre/v10_0_2/lpmos/models/mos/pmc_mos2.scs
Reading file:  /opt/pdk/xfab/XKIT/xh018/cadence/v10_0/spectre/v10_0_2/lpmos/models/mos/pmc_bjt.scs
Reading file:  /opt/pdk/xfab/XKIT/xh018/cadence/v10_0/spectre/v10_0_2/lpmos/models/mos/pmmc.scs
Reading file:  /opt/pdk/xfab/XKIT/xh018/cadence/v10_0/spectre/v10_0_2/lpmos/models/mos/pmmc_mos2.scs
Reading file:  /opt/pdk/xfab/XKIT/xh018/cadence/v10_0/spectre/v10_0_2/lpmos/models/mos/pmmc_bjt.scs
Reading file:  /opt/pdk/xfab/XKIT/xh018/cadence/v10_0/spectre/v10_0_2/lpmos/models/mos/pma.scs
Reading file:  /opt/pdk/xfab/XKIT/xh018/cadence/v10_0/spectre/v10_0_2/lpmos/models/mos/pma_bjt.scs
Reading file:  /opt/pdk/xfab/XKIT/xh018/cadence/v10_0/spectre/v10_0_2/lpmos/models/mos/pmb.scs
Reading file:  /opt/pdk/xfab/XKIT/xh018/cadence/v10_0/spectre/v10_0_2/lpmos/models/mos/nesvt.scs
Reading file:  /opt/pdk/xfab/XKIT/xh018/cadence/v10_0/spectre/v10_0_2/lpmos/models/mos/nesvti.scs
Reading file:  /opt/pdk/xfab/XKIT/xh018/cadence/v10_0/spectre/v10_0_2/lpmos/models/mos/nesvti_6.scs
Reading file:  /opt/pdk/xfab/XKIT/xh018/cadence/v10_0/spectre/v10_0_2/lpmos/models/mos/nesvti_m_6.scs
Reading file:  /opt/pdk/xfab/XKIT/xh018/cadence/v10_0/spectre/v10_0_2/lpmos/models/mos/pesvt.scs
Reading file:  /opt/pdk/xfab/XKIT/xh018/cadence/v10_0/spectre/v10_0_2/lpmos/models/mos/pesvt_5.scs
Reading file:  /opt/pdk/xfab/XKIT/xh018/cadence/v10_0/spectre/v10_0_2/lpmos/models/mos/pesvti.scs
Reading file:  /opt/pdk/xfab/XKIT/xh018/cadence/v10_0/spectre/v10_0_2/lpmos/models/mos/pesvti_5.scs
Reading file:  /opt/pdk/xfab/XKIT/xh018/cadence/v10_0/spectre/v10_0_2/lpmos/models/mos/pesvti_m_5.scs
Reading file:  /opt/pdk/xfab/XKIT/xh018/cadence/v10_0/spectre/v10_0_2/lpmos/models/mos/nhvd.scs
Reading file:  /opt/pdk/xfab/XKIT/xh018/cadence/v10_0/spectre/v10_0_2/lpmos/models/mos/nhvd_bjt.scs
Reading file:  /opt/pdk/xfab/XKIT/xh018/cadence/v10_0/spectre/v10_0_2/lpmos/models/mos/nhhvd.scs
Reading file:  /opt/pdk/xfab/XKIT/xh018/cadence/v10_0/spectre/v10_0_2/lpmos/models/mos/nhhvd_bjt.scs
Reading file:  /opt/pdk/xfab/XKIT/xh018/cadence/v10_0/spectre/v10_0_2/lpmos/photo.scs
Reading file:  /opt/pdk/xfab/XKIT/xh018/cadence/v10_0/spectre/v10_0_2/lpmos/models/photo/tm_pho.scs
Reading file:  /opt/pdk/xfab/XKIT/xh018/cadence/v10_0/spectre/v10_0_2/lpmos/models/photo/dphoa.scs
Reading file:  /opt/pdk/xfab/XKIT/xh018/cadence/v10_0/spectre/v10_0_2/lpmos/models/photo/dpho.va
Reading link:  /opt/tools/cadence/installs/SPECTRE241/tools.lnx86/spectre/etc/ahdl/constants.h
Reading file:  /opt/tools/cadence/installs/SPECTRE241/tools.lnx86/spectre/etc/ahdl/constants.vams
Reading link:  /opt/tools/cadence/installs/SPECTRE241/tools.lnx86/spectre/etc/ahdl/discipline.h
Reading file:  /opt/tools/cadence/installs/SPECTRE241/tools.lnx86/spectre/etc/ahdl/disciplines.vams
Reading file:  /opt/pdk/xfab/XKIT/xh018/cadence/v10_0/spectre/v10_0_2/lpmos/models/photo/dphob.scs
Reading file:  /opt/pdk/xfab/XKIT/xh018/cadence/v10_0/spectre/v10_0_2/lpmos/models/photo/dphoc.scs
Reading file:  /opt/pdk/xfab/XKIT/xh018/cadence/v10_0/spectre/v10_0_2/lpmos/models/photo/iphoto_uv.va
Reading file:  /opt/pdk/xfab/XKIT/xh018/cadence/v10_0/spectre/v10_0_2/lpmos/models/photo/dphoc_cat.scs
Reading file:  /opt/pdk/xfab/XKIT/xh018/cadence/v10_0/spectre/v10_0_2/lpmos/models/photo/dphoc0.scs
Reading file:  /opt/pdk/xfab/XKIT/xh018/cadence/v10_0/spectre/v10_0_2/lpmos/models/photo/dphoc0_cat.scs
Reading file:  /opt/pdk/xfab/XKIT/xh018/cadence/v10_0/spectre/v10_0_2/lpmos/models/photo/dphocfp.scs
Reading file:  /opt/pdk/xfab/XKIT/xh018/cadence/v10_0/spectre/v10_0_2/lpmos/models/photo/dphocfp_cat.scs
Reading file:  /opt/pdk/xfab/XKIT/xh018/cadence/v10_0/spectre/v10_0_2/lpmos/models/photo/dphod.scs
Reading file:  /opt/pdk/xfab/XKIT/xh018/cadence/v10_0/spectre/v10_0_2/lpmos/models/photo/dphod_an1.scs
Reading file:  /opt/pdk/xfab/XKIT/xh018/cadence/v10_0/spectre/v10_0_2/lpmos/models/photo/dphod_an2.scs
Reading file:  /opt/pdk/xfab/XKIT/xh018/cadence/v10_0/spectre/v10_0_2/lpmos/models/photo/dphod0.scs
Reading file:  /opt/pdk/xfab/XKIT/xh018/cadence/v10_0/spectre/v10_0_2/lpmos/models/photo/dphod0_an1.scs
Reading file:  /opt/pdk/xfab/XKIT/xh018/cadence/v10_0/spectre/v10_0_2/lpmos/models/photo/dphod0_an2.scs
Reading file:  /opt/pdk/xfab/XKIT/xh018/cadence/v10_0/spectre/v10_0_2/lpmos/models/photo/dphodfp.scs
Reading file:  /opt/pdk/xfab/XKIT/xh018/cadence/v10_0/spectre/v10_0_2/lpmos/models/photo/dphodfp_an1.scs
Reading file:  /opt/pdk/xfab/XKIT/xh018/cadence/v10_0/spectre/v10_0_2/lpmos/models/photo/dphodfp_an2.scs
Reading file:  /opt/pdk/xfab/XKIT/xh018/cadence/v10_0/spectre/v10_0_2/lpmos/models/photo/dspada0.scs
Reading file:  /opt/pdk/xfab/XKIT/xh018/cadence/v10_0/spectre/v10_0_2/lpmos/models/photo/ispad.va
Reading file:  /opt/pdk/xfab/XKIT/xh018/cadence/v10_0/spectre/v10_0_2/lpmos/models/photo/dapb.scs
Reading file:  /opt/pdk/xfab/XKIT/xh018/cadence/v10_0/spectre/v10_0_2/lpmos/models/photo/iphoto_apd_trig.va
Reading file:  /opt/pdk/xfab/XKIT/xh018/cadence/v10_0/spectre/v10_0_2/lpmos/models/photo/dapb_jun.scs
Reading file:  /opt/pdk/xfab/XKIT/xh018/cadence/v10_0/spectre/v10_0_2/lpmos/models/photo/dapb_trig.scs
Reading file:  /opt/pdk/xfab/XKIT/xh018/cadence/v10_0/spectre/v10_0_2/lpmos/models/photo/dapb0.scs
Reading file:  /opt/pdk/xfab/XKIT/xh018/cadence/v10_0/spectre/v10_0_2/lpmos/models/photo/dapb0_jun.scs
Reading file:  /opt/pdk/xfab/XKIT/xh018/cadence/v10_0/spectre/v10_0_2/lpmos/models/photo/dspb.scs
Reading file:  /opt/pdk/xfab/XKIT/xh018/cadence/v10_0/spectre/v10_0_2/lpmos/models/photo/ispad_trig.va
Reading file:  /opt/pdk/xfab/XKIT/xh018/cadence/v10_0/spectre/v10_0_2/lpmos/models/photo/dspb_jun.scs
Reading file:  /opt/pdk/xfab/XKIT/xh018/cadence/v10_0/spectre/v10_0_2/lpmos/models/photo/dspb_trig.scs
Reading file:  /opt/pdk/xfab/XKIT/xh018/cadence/v10_0/spectre/v10_0_2/lpmos/models/photo/dspb0.scs
Reading file:  /opt/pdk/xfab/XKIT/xh018/cadence/v10_0/spectre/v10_0_2/lpmos/models/photo/dspb0_jun.scs
Reading file:  /opt/pdk/xfab/XKIT/xh018/cadence/v10_0/spectre/v10_0_2/lpmos/models/photo/dspbfep.scs
Reading file:  /opt/pdk/xfab/XKIT/xh018/cadence/v10_0/spectre/v10_0_2/lpmos/models/photo/dapda.scs
Reading file:  /opt/pdk/xfab/XKIT/xh018/cadence/v10_0/spectre/v10_0_2/lpmos/models/photo/iphoto_apd.va
Reading file:  /opt/pdk/xfab/XKIT/xh018/cadence/v10_0/spectre/v10_0_2/lpmos/models/photo/dapda_cat.scs
Reading file:  /opt/pdk/xfab/XKIT/xh018/cadence/v10_0/spectre/v10_0_2/lpmos/models/photo/dapda0.scs
Reading file:  /opt/pdk/xfab/XKIT/xh018/cadence/v10_0/spectre/v10_0_2/lpmos/models/photo/dspada.scs
Reading file:  /opt/pdk/xfab/XKIT/xh018/cadence/v10_0/spectre/v10_0_2/lpmos/models/photo/dspada_cat.scs
Reading file:  /opt/pdk/xfab/XKIT/xh018/cadence/v10_0/spectre/v10_0_2/lpmos/res.scs
Reading file:  /opt/pdk/xfab/XKIT/xh018/cadence/v10_0/spectre/v10_0_2/lpmos/models/res/tm_res.scs
Reading file:  /opt/pdk/xfab/XKIT/xh018/cadence/v10_0/spectre/v10_0_2/lpmos/models/res/rdn.scs
Reading file:  /opt/pdk/xfab/XKIT/xh018/cadence/v10_0/spectre/v10_0_2/lpmos/models/res/rdn_esd.scs
Reading file:  /opt/pdk/xfab/XKIT/xh018/cadence/v10_0/spectre/v10_0_2/lpmos/models/res/rdp.scs
Reading file:  /opt/pdk/xfab/XKIT/xh018/cadence/v10_0/spectre/v10_0_2/lpmos/models/res/rdp_io.scs
Reading file:  /opt/pdk/xfab/XKIT/xh018/cadence/v10_0/spectre/v10_0_2/lpmos/models/res/rdp_esd.scs
Reading file:  /opt/pdk/xfab/XKIT/xh018/cadence/v10_0/spectre/v10_0_2/lpmos/models/res/rnw.scs
Reading file:  /opt/pdk/xfab/XKIT/xh018/cadence/v10_0/spectre/v10_0_2/lpmos/models/res/rnw_scr.scs
Reading file:  /opt/pdk/xfab/XKIT/xh018/cadence/v10_0/spectre/v10_0_2/lpmos/models/res/rdn3.scs
Reading file:  /opt/pdk/xfab/XKIT/xh018/cadence/v10_0/spectre/v10_0_2/lpmos/models/res/rdp3.scs
Reading file:  /opt/pdk/xfab/XKIT/xh018/cadence/v10_0/spectre/v10_0_2/lpmos/models/res/rnw3.scs
Reading file:  /opt/pdk/xfab/XKIT/xh018/cadence/v10_0/spectre/v10_0_2/lpmos/models/res/rnw3_scr.scs
Reading file:  /opt/pdk/xfab/XKIT/xh018/cadence/v10_0/spectre/v10_0_2/lpmos/models/res/rdnwmv.scs
Reading file:  /opt/pdk/xfab/XKIT/xh018/cadence/v10_0/spectre/v10_0_2/lpmos/models/res/rnp1.scs
Reading file:  /opt/pdk/xfab/XKIT/xh018/cadence/v10_0/spectre/v10_0_2/lpmos/models/res/rnp1_3.scs
Reading file:  /opt/pdk/xfab/XKIT/xh018/cadence/v10_0/spectre/v10_0_2/lpmos/models/res/rpp1.scs
Reading file:  /opt/pdk/xfab/XKIT/xh018/cadence/v10_0/spectre/v10_0_2/lpmos/models/res/rpp1_3.scs
Reading file:  /opt/pdk/xfab/XKIT/xh018/cadence/v10_0/spectre/v10_0_2/lpmos/models/res/rpp1s.scs
Reading file:  /opt/pdk/xfab/XKIT/xh018/cadence/v10_0/spectre/v10_0_2/lpmos/models/res/rpp1s_3.scs
Reading file:  /opt/pdk/xfab/XKIT/xh018/cadence/v10_0/spectre/v10_0_2/lpmos/models/res/rnp1h.scs
Reading file:  /opt/pdk/xfab/XKIT/xh018/cadence/v10_0/spectre/v10_0_2/lpmos/models/res/rnp1h_3.scs
Reading file:  /opt/pdk/xfab/XKIT/xh018/cadence/v10_0/spectre/v10_0_2/lpmos/models/res/rpp1k1.scs
Reading file:  /opt/pdk/xfab/XKIT/xh018/cadence/v10_0/spectre/v10_0_2/lpmos/models/res/rpp1k1_3.scs
Reading file:  /opt/pdk/xfab/XKIT/xh018/cadence/v10_0/spectre/v10_0_2/lpmos/models/res/rctdn.scs
Reading file:  /opt/pdk/xfab/XKIT/xh018/cadence/v10_0/spectre/v10_0_2/lpmos/models/res/rctdp.scs
Reading file:  /opt/pdk/xfab/XKIT/xh018/cadence/v10_0/spectre/v10_0_2/lpmos/models/res/rctp1.scs
Reading file:  /opt/pdk/xfab/XKIT/xh018/cadence/v10_0/spectre/v10_0_2/lpmos/models/res/rsildn.scs
Reading file:  /opt/pdk/xfab/XKIT/xh018/cadence/v10_0/spectre/v10_0_2/lpmos/models/res/rsildp.scs
Reading file:  /opt/pdk/xfab/XKIT/xh018/cadence/v10_0/spectre/v10_0_2/lpmos/models/res/rsilnp1.scs
Reading file:  /opt/pdk/xfab/XKIT/xh018/cadence/v10_0/spectre/v10_0_2/lpmos/models/res/rsilpp1.scs
Reading file:  /opt/pdk/xfab/XKIT/xh018/cadence/v10_0/spectre/v10_0_2/lpmos/models/res/rsbdn.scs
Reading file:  /opt/pdk/xfab/XKIT/xh018/cadence/v10_0/spectre/v10_0_2/lpmos/models/res/rsbdp.scs
Reading file:  /opt/pdk/xfab/XKIT/xh018/cadence/v10_0/spectre/v10_0_2/lpmos/models/res/rsbdn3.scs
Reading file:  /opt/pdk/xfab/XKIT/xh018/cadence/v10_0/spectre/v10_0_2/lpmos/models/res/rsbdp3.scs
Reading file:  /opt/pdk/xfab/XKIT/xh018/cadence/v10_0/spectre/v10_0_2/lpmos/models/res/rsbnp1.scs
Reading file:  /opt/pdk/xfab/XKIT/xh018/cadence/v10_0/spectre/v10_0_2/lpmos/models/res/rsbpp1.scs
Reading file:  /opt/pdk/xfab/XKIT/xh018/cadence/v10_0/spectre/v10_0_2/lpmos/models/res/rsbpp1k1.scs
Reading file:  /opt/pdk/xfab/XKIT/xh018/cadence/v10_0/spectre/v10_0_2/lpmos/models/res/rm1.scs
Reading file:  /opt/pdk/xfab/XKIT/xh018/cadence/v10_0/spectre/v10_0_2/lpmos/models/res/rm2.scs
Reading file:  /opt/pdk/xfab/XKIT/xh018/cadence/v10_0/spectre/v10_0_2/lpmos/models/res/rm3.scs
Reading file:  /opt/pdk/xfab/XKIT/xh018/cadence/v10_0/spectre/v10_0_2/lpmos/models/res/rm4.scs
Reading file:  /opt/pdk/xfab/XKIT/xh018/cadence/v10_0/spectre/v10_0_2/lpmos/models/res/rm5.scs
Reading file:  /opt/pdk/xfab/XKIT/xh018/cadence/v10_0/spectre/v10_0_2/lpmos/models/res/rmtp.scs
Reading file:  /opt/pdk/xfab/XKIT/xh018/cadence/v10_0/spectre/v10_0_2/lpmos/models/res/rmtpl.scs
Reading file:  /opt/pdk/xfab/XKIT/xh018/cadence/v10_0/spectre/v10_0_2/lpmos/models/res/pfuse.scs
Reading file:  /opt/pdk/xfab/XKIT/xh018/cadence/v10_0/spectre/v10_0_2/lpmos/models/res/s_res.scs
Time for NDB Parsing: CPU = 184.523 ms, elapsed = 599.456 ms.
Time accumulated: CPU = 331.835 ms, elapsed = 599.457 ms.
Peak resident memory used = 191 Mbytes.

Time for Elaboration: CPU = 13.094 ms, elapsed = 13.5531 ms.
Time accumulated: CPU = 345.029 ms, elapsed = 615.157 ms.
Peak resident memory used = 202 Mbytes.


Notice from spectre during hierarchy flattening.
    The value 'psf' specified for the 'checklimitdest' option will no longer be supported in future releases. Use 'spectre -h' to see other recommended values for the 'checklimitdest' option.


Time for EDB Visiting: CPU = 474 us, elapsed = 509.977 us.
Time accumulated: CPU = 345.625 ms, elapsed = 616.828 ms.
Peak resident memory used = 204 Mbytes.


Notice from spectre during initial setup.
    Multithreading is disabled due to the size of the design being too small.


Netlist title:
        // Generated for: spectre


Global user options:
         psfversion = 1.4.0
            vabstol = 1e-06
            iabstol = 1e-12
               temp = 27
               gmin = 1e-12
             rforce = 1
           maxnotes = 5
           maxwarns = 5
             digits = 5
               cols = 80
             pivrel = 0.001
           sensfile = ../psf/sens.output
     checklimitdest = psf
               save = allpub
             reltol = 0.001
               tnom = 27
             scalem = 1
              scale = 1

Scoped user options:

Circuit inventory:
              nodes 3
            bsim3v3 1     
            isource 1     
               vcvs 1     
            vsource 1     

Analysis and control statement inventory:
                 dc 1     
               info 7     

Output statements:
             .probe 0     
           .measure 0     
               save 0     


Notice from spectre during initial setup.
    APS enabled.

Time for parsing: CPU = 1.511 ms, elapsed = 9.03702 ms.
Time accumulated: CPU = 347.225 ms, elapsed = 625.992 ms.
Peak resident memory used = 207 Mbytes.

~~~~~~~~~~~~~~~~~~~~~~
Pre-Simulation Summary
~~~~~~~~~~~~~~~~~~~~~~
   -   (APS) Multi-threading. The recommended number of threads is 1, consider adding +mt=1 on command line.
~~~~~~~~~~~~~~~~~~~~~~

******************
DC Analysis `dcOp'
******************

Opening the PSF file ../psf/dcOp.dc ...
Important parameter values:
    reltol = 1e-03
    abstol(V) = 1 uV
    abstol(I) = 1 pA
    temp = 27 C
    tnom = 27 C
    tempeffects = all
    gmindc = 1 pS
    rabsshort = 1 mOhm

Maximum value achieved for any signal of each quantity: 
V: V(D) = 500.4 mV
I: I(V1:p) = 0 A
Convergence achieved in 5 iterations.
DC simulation time: CPU = 1.503 ms, elapsed = 7.10392 ms.
Total time required for dc analysis `dcOp': CPU = 1.557 ms, elapsed = 7.17306 ms, util. = 21.7%.
Time accumulated: CPU = 355.92 ms, elapsed = 644.162 ms.
Peak resident memory used = 210 Mbytes.

dcOpInfo: writing operating point information to rawfile.

Opening the PSF file ../psf/dcOpInfo.info ...
modelParameter: writing model parameter values to rawfile.

Opening the PSF file ../psf/modelParameter.info ...
element: writing instance parameter values to rawfile.

Opening the PSF file ../psf/element.info ...
outputParameter: writing output parameter values to rawfile.

Opening the PSF file ../psf/outputParameter.info ...
designParamVals: writing netlist parameters to rawfile.

Opening the PSFASCII file ../psf/designParamVals.info ...
primitives: writing primitives to rawfile.

Opening the PSFASCII file ../psf/primitives.info.primitives ...
subckts: writing subcircuits to rawfile.

Opening the PSFASCII file ../psf/subckts.info.subckts ...
Licensing Information:
Lic Summary:
[17:00:11.198600] Cdslmd servers:3000@lic08.ug.kth.se
[17:00:11.198664] Feature usage summary:
[17:00:11.198665] Virtuoso_Multi_mode_Simulation


Aggregate audit (5:00:11 PM, Sun Nov 9, 2025):
Time used: CPU = 370 ms, elapsed = 713 ms, util. = 51.9%.
Time spent in licensing: elapsed = 85.5 ms, percentage of total = 12%.
Peak memory used = 212 Mbytes.
Simulation started at: 5:00:10 PM, Sun Nov 9, 2025, ended at: 5:00:11 PM, Sun Nov 9, 2025, with elapsed time (wall clock): 713 ms.
spectre completes with 0 errors, 0 warnings, and 4 notices.


********* LOG ENDS **************
**                             **
