
Spectre (R) Circuit Simulator
Version 23.1.0.562.isr11 64bit -- 7 Aug 2024
Copyright (C) 1989-2024 Cadence Design Systems, Inc. All rights reserved worldwide. Cadence and Spectre are registered trademarks of Cadence Design Systems, Inc. All others are the property of their respective holders.

Includes RSA BSAFE(R) Cryptographic or Security Protocol Software from RSA Security, Inc.

User: saul   Host: s2424   HostID: ED824314   PID: 4517
Memory  available: 58.9607 GB  physical: 67.2863 GB
Linux   : CentOS Linux release 7 (Core)
CPU Type: Intel(R) Xeon(R) CPU E5-2630 v3 @ 2.40GHz
        Socket: Processors [Frequency] (Hyperthreaded Processor)
        0:       0 [1200.0] ( 16 ),  1 [1236.6] ( 17 ),  2 [1234.6] ( 18 )
                 3 [1768.4] ( 19 ),  4 [1200.1] ( 20 ),  5 [1200.3] ( 21 )
                 6 [2403.1] ( 22 ),  7 [1200.0] ( 23 )
        1:       8 [1200.1] ( 24 ),  9 [1286.7] ( 25 ), 10 [1211.7] ( 26 )
                11 [1199.9] ( 27 ), 12 [1226.5] ( 28 ), 13 [1200.0] ( 29 )
                14 [1200.0] ( 30 ), 15 [1297.7] ( 31 )
        
System load averages (1min, 5min, 15min) : 0.8 %, 0.2 %, 0.2 %
Hyperthreading is enabled
HPC is enabled


Simulating `input.scs' on s2424 at 12:59:31 AM, Sat May 3, 2025 (process id: 4517).
Current working directory: /home/saul/projects/FIL3601/Sim/DAY7/ex1_small_signal_no_bias/adexl/results/data/Interactive.66/1/root_locus/netlist
Command line:
    /pkg/cadence/installs/SPECTRE231/tools/bin/spectre -64 input.scs  \
        +escchars +log ../psf/spectre.out -format psfxl -raw ../psf  \
        +aps +mt +lqtimeout 900 -maxw 5 -maxn 5 -env ade -ahdllibdir  \
        /home/saul/projects/FIL3601/Sim/DAY7/ex1_small_signal_no_bias/adexl/results/data/Interactive.66/sharedData/Job0/ahdl/input.ahdlSimDB  \
        +logstatus  \
        +adespetkn=0001089D13A302B663E41FB550AF0DF415A679A322D5069144BF588C12F604E07EF416DC01A319B562BB63D36AFD2CB445A3598D09F923E679AC7EC44EF84F9241CF79D15D9175FF34980CBD6B9974D3349879E36BCA74D3009843E52FCD43E60EAC79D12CF874D3349879D118F874D3349811C456AA3A815C8D000036C8

Simulation Id: XgF4mhM4W5mArBuW
Licensing Information:
[00:59:31.512401] Configured Lic search path (22.01-s002): 3000@lic08.ug.kth.se

Licensing Information:
[00:59:31.357440] Periodic Lic check successful

Loading /pkg/cadence/installs/SPECTRE231/tools.lnx86/cmi/lib/64bit/5.0/libinfineon_sh.so ...
Loading /pkg/cadence/installs/SPECTRE231/tools.lnx86/cmi/lib/64bit/5.0/libphilips_I_sh.so ...
Loading /pkg/cadence/installs/SPECTRE231/tools.lnx86/cmi/lib/64bit/5.0/libphilips_sh.so ...
Loading /pkg/cadence/installs/SPECTRE231/tools.lnx86/cmi/lib/64bit/5.0/libsparam_sh.so ...
Loading /pkg/cadence/installs/SPECTRE231/tools.lnx86/cmi/lib/64bit/5.0/libstmodels_sh.so ...
Reading file:  /home/saul/projects/FIL3601/Sim/DAY7/ex1_small_signal_no_bias/adexl/results/data/Interactive.66/1/root_locus/netlist/input.scs
Reading file:  /pkg/cadence/installs/SPECTRE231/tools.lnx86/spectre/etc/configs/spectre.cfg
Reading file:  /pkg/xfab2/XKIT/xh018/cadence/v9_0/spectre/v9_0_2/lpmos/config.scs
Reading file:  /pkg/xfab2/XKIT/xh018/cadence/v9_0/spectre/v9_0_2/lpmos/param.scs
Reading file:  /pkg/xfab2/XKIT/xh018/cadence/v9_0/spectre/v9_0_2/lpmos/bip.scs
Reading file:  /pkg/xfab2/XKIT/xh018/cadence/v9_0/spectre/v9_0_2/lpmos/models/bip/tm_bip.scs
Reading file:  /pkg/xfab2/XKIT/xh018/cadence/v9_0/spectre/v9_0_2/lpmos/models/bip/qpva.scs
Reading file:  /pkg/xfab2/XKIT/xh018/cadence/v9_0/spectre/v9_0_2/lpmos/models/bip/qpvb.scs
Reading file:  /pkg/xfab2/XKIT/xh018/cadence/v9_0/spectre/v9_0_2/lpmos/models/bip/qpvc.scs
Reading file:  /pkg/xfab2/XKIT/xh018/cadence/v9_0/spectre/v9_0_2/lpmos/models/bip/qpva3.scs
Reading file:  /pkg/xfab2/XKIT/xh018/cadence/v9_0/spectre/v9_0_2/lpmos/models/bip/qpvb3.scs
Reading file:  /pkg/xfab2/XKIT/xh018/cadence/v9_0/spectre/v9_0_2/lpmos/models/bip/qpvc3.scs
Reading file:  /pkg/xfab2/XKIT/xh018/cadence/v9_0/spectre/v9_0_2/lpmos/models/bip/qnva.scs
Reading file:  /pkg/xfab2/XKIT/xh018/cadence/v9_0/spectre/v9_0_2/lpmos/models/bip/qnvb.scs
Reading file:  /pkg/xfab2/XKIT/xh018/cadence/v9_0/spectre/v9_0_2/lpmos/models/bip/qnvb_npn.scs
Reading file:  /pkg/xfab2/XKIT/xh018/cadence/v9_0/spectre/v9_0_2/lpmos/models/bip/qnvb_pnp.scs
Reading file:  /pkg/xfab2/XKIT/xh018/cadence/v9_0/spectre/v9_0_2/lpmos/models/bip/qnvc.scs
Reading file:  /pkg/xfab2/XKIT/xh018/cadence/v9_0/spectre/v9_0_2/lpmos/models/bip/qnvc_npn.scs
Reading file:  /pkg/xfab2/XKIT/xh018/cadence/v9_0/spectre/v9_0_2/lpmos/models/bip/qnvc_pnp.scs
Reading file:  /pkg/xfab2/XKIT/xh018/cadence/v9_0/spectre/v9_0_2/lpmos/models/bip/qpvhscr.scs
Reading file:  /pkg/xfab2/XKIT/xh018/cadence/v9_0/spectre/v9_0_2/lpmos/models/bip/qpvascr.scs
Reading file:  /pkg/xfab2/XKIT/xh018/cadence/v9_0/spectre/v9_0_2/lpmos/models/bip/qpvhbscr.scs
Reading file:  /pkg/xfab2/XKIT/xh018/cadence/v9_0/spectre/v9_0_2/lpmos/models/bip/qnvba.scs
Reading file:  /pkg/xfab2/XKIT/xh018/cadence/v9_0/spectre/v9_0_2/lpmos/models/bip/qnvba_npn.scs
Reading file:  /pkg/xfab2/XKIT/xh018/cadence/v9_0/spectre/v9_0_2/lpmos/models/bip/qnvba_pnp.scs
Reading file:  /pkg/xfab2/XKIT/xh018/cadence/v9_0/spectre/v9_0_2/lpmos/models/bip/qnvca.scs
Reading file:  /pkg/xfab2/XKIT/xh018/cadence/v9_0/spectre/v9_0_2/lpmos/models/bip/qnvca_npn.scs
Reading file:  /pkg/xfab2/XKIT/xh018/cadence/v9_0/spectre/v9_0_2/lpmos/models/bip/qnvca_pnp.scs
Reading file:  /pkg/xfab2/XKIT/xh018/cadence/v9_0/spectre/v9_0_2/lpmos/models/bip/qpv_pa.scs
Reading file:  /pkg/xfab2/XKIT/xh018/cadence/v9_0/spectre/v9_0_2/lpmos/models/bip/qpv_pb.scs
Reading file:  /pkg/xfab2/XKIT/xh018/cadence/v9_0/spectre/v9_0_2/lpmos/models/bip/qpv_pc.scs
Reading file:  /pkg/xfab2/XKIT/xh018/cadence/v9_0/spectre/v9_0_2/lpmos/models/bip/qpv_pd.scs
Reading file:  /pkg/xfab2/XKIT/xh018/cadence/v9_0/spectre/v9_0_2/lpmos/models/bip/qpv_pe.scs
Reading file:  /pkg/xfab2/XKIT/xh018/cadence/v9_0/spectre/v9_0_2/lpmos/models/bip/qpv_pf.scs
Reading file:  /pkg/xfab2/XKIT/xh018/cadence/v9_0/spectre/v9_0_2/lpmos/models/bip/qpl_pa.scs
Reading file:  /pkg/xfab2/XKIT/xh018/cadence/v9_0/spectre/v9_0_2/lpmos/models/bip/qpl_pb.scs
Reading file:  /pkg/xfab2/XKIT/xh018/cadence/v9_0/spectre/v9_0_2/lpmos/models/bip/qpl_pc.scs
Reading file:  /pkg/xfab2/XKIT/xh018/cadence/v9_0/spectre/v9_0_2/lpmos/models/bip/qpl_pd.scs
Reading file:  /pkg/xfab2/XKIT/xh018/cadence/v9_0/spectre/v9_0_2/lpmos/models/bip/qpl_pe.scs
Reading file:  /pkg/xfab2/XKIT/xh018/cadence/v9_0/spectre/v9_0_2/lpmos/models/bip/qpl_pf.scs
Reading file:  /pkg/xfab2/XKIT/xh018/cadence/v9_0/spectre/v9_0_2/lpmos/models/bip/qnl_pa.scs
Reading file:  /pkg/xfab2/XKIT/xh018/cadence/v9_0/spectre/v9_0_2/lpmos/models/bip/qnl_pb.scs
Reading file:  /pkg/xfab2/XKIT/xh018/cadence/v9_0/spectre/v9_0_2/lpmos/models/bip/qnl_pc.scs
Reading file:  /pkg/xfab2/XKIT/xh018/cadence/v9_0/spectre/v9_0_2/lpmos/models/bip/qnl_pd.scs
Reading file:  /pkg/xfab2/XKIT/xh018/cadence/v9_0/spectre/v9_0_2/lpmos/models/bip/qnl_pe.scs
Reading file:  /pkg/xfab2/XKIT/xh018/cadence/v9_0/spectre/v9_0_2/lpmos/models/bip/qnl_pf.scs
Reading file:  /pkg/xfab2/XKIT/xh018/cadence/v9_0/spectre/v9_0_2/lpmos/cap.scs
Reading file:  /pkg/xfab2/XKIT/xh018/cadence/v9_0/spectre/v9_0_2/lpmos/models/cap/tm_cap.scs
Reading file:  /pkg/xfab2/XKIT/xh018/cadence/v9_0/spectre/v9_0_2/lpmos/models/cap/csandwt3.scs
Reading file:  /pkg/xfab2/XKIT/xh018/cadence/v9_0/spectre/v9_0_2/lpmos/models/cap/csandwt4.scs
Reading file:  /pkg/xfab2/XKIT/xh018/cadence/v9_0/spectre/v9_0_2/lpmos/models/cap/csandwt5.scs
Reading file:  /pkg/xfab2/XKIT/xh018/cadence/v9_0/spectre/v9_0_2/lpmos/models/cap/csf2p.scs
Reading file:  /pkg/xfab2/XKIT/xh018/cadence/v9_0/spectre/v9_0_2/lpmos/models/cap/csf3p.scs
Reading file:  /pkg/xfab2/XKIT/xh018/cadence/v9_0/spectre/v9_0_2/lpmos/models/cap/csf3.scs
Reading file:  /pkg/xfab2/XKIT/xh018/cadence/v9_0/spectre/v9_0_2/lpmos/models/cap/csf4.scs
Reading file:  /pkg/xfab2/XKIT/xh018/cadence/v9_0/spectre/v9_0_2/lpmos/models/cap/csf5.scs
Reading file:  /pkg/xfab2/XKIT/xh018/cadence/v9_0/spectre/v9_0_2/lpmos/models/cap/csft4.scs
Reading file:  /pkg/xfab2/XKIT/xh018/cadence/v9_0/spectre/v9_0_2/lpmos/models/cap/csft5.scs
Reading file:  /pkg/xfab2/XKIT/xh018/cadence/v9_0/spectre/v9_0_2/lpmos/models/cap/csft6.scs
Reading file:  /pkg/xfab2/XKIT/xh018/cadence/v9_0/spectre/v9_0_2/lpmos/models/cap/csf3a.scs
Reading file:  /pkg/xfab2/XKIT/xh018/cadence/v9_0/spectre/v9_0_2/lpmos/models/cap/csf4a.scs
Reading file:  /pkg/xfab2/XKIT/xh018/cadence/v9_0/spectre/v9_0_2/lpmos/models/cap/csf5a.scs
Reading file:  /pkg/xfab2/XKIT/xh018/cadence/v9_0/spectre/v9_0_2/lpmos/models/cap/csft4a.scs
Reading file:  /pkg/xfab2/XKIT/xh018/cadence/v9_0/spectre/v9_0_2/lpmos/models/cap/csft5a.scs
Reading file:  /pkg/xfab2/XKIT/xh018/cadence/v9_0/spectre/v9_0_2/lpmos/models/cap/csft6a.scs
Reading file:  /pkg/xfab2/XKIT/xh018/cadence/v9_0/spectre/v9_0_2/lpmos/models/cap/cif3a.scs
Reading file:  /pkg/xfab2/XKIT/xh018/cadence/v9_0/spectre/v9_0_2/lpmos/models/cap/cif4a.scs
Reading file:  /pkg/xfab2/XKIT/xh018/cadence/v9_0/spectre/v9_0_2/lpmos/models/cap/cif5a.scs
Reading file:  /pkg/xfab2/XKIT/xh018/cadence/v9_0/spectre/v9_0_2/lpmos/models/cap/cift4a.scs
Reading file:  /pkg/xfab2/XKIT/xh018/cadence/v9_0/spectre/v9_0_2/lpmos/models/cap/cift5a.scs
Reading file:  /pkg/xfab2/XKIT/xh018/cadence/v9_0/spectre/v9_0_2/lpmos/models/cap/cift6a.scs
Reading file:  /pkg/xfab2/XKIT/xh018/cadence/v9_0/spectre/v9_0_2/lpmos/models/cap/cmm3.scs
Reading file:  /pkg/xfab2/XKIT/xh018/cadence/v9_0/spectre/v9_0_2/lpmos/models/cap/cmm4t.scs
Reading file:  /pkg/xfab2/XKIT/xh018/cadence/v9_0/spectre/v9_0_2/lpmos/models/cap/cmm4.scs
Reading file:  /pkg/xfab2/XKIT/xh018/cadence/v9_0/spectre/v9_0_2/lpmos/models/cap/cmm5t.scs
Reading file:  /pkg/xfab2/XKIT/xh018/cadence/v9_0/spectre/v9_0_2/lpmos/models/cap/cmm6t.scs
Reading file:  /pkg/xfab2/XKIT/xh018/cadence/v9_0/spectre/v9_0_2/lpmos/models/cap/cdmm4.scs
Reading file:  /pkg/xfab2/XKIT/xh018/cadence/v9_0/spectre/v9_0_2/lpmos/models/cap/cdmm4t.scs
Reading file:  /pkg/xfab2/XKIT/xh018/cadence/v9_0/spectre/v9_0_2/lpmos/models/cap/ctmm5.scs
Reading file:  /pkg/xfab2/XKIT/xh018/cadence/v9_0/spectre/v9_0_2/lpmos/models/cap/ctmm5t.scs
Reading file:  /pkg/xfab2/XKIT/xh018/cadence/v9_0/spectre/v9_0_2/lpmos/models/cap/cmmh3.scs
Reading file:  /pkg/xfab2/XKIT/xh018/cadence/v9_0/spectre/v9_0_2/lpmos/models/cap/cmmh4t.scs
Reading file:  /pkg/xfab2/XKIT/xh018/cadence/v9_0/spectre/v9_0_2/lpmos/models/cap/cmmh4.scs
Reading file:  /pkg/xfab2/XKIT/xh018/cadence/v9_0/spectre/v9_0_2/lpmos/models/cap/cmmh5t.scs
Reading file:  /pkg/xfab2/XKIT/xh018/cadence/v9_0/spectre/v9_0_2/lpmos/models/cap/cmmh6t.scs
Reading file:  /pkg/xfab2/XKIT/xh018/cadence/v9_0/spectre/v9_0_2/lpmos/models/cap/cdmmh4.scs
Reading file:  /pkg/xfab2/XKIT/xh018/cadence/v9_0/spectre/v9_0_2/lpmos/models/cap/cdmmh4t.scs
Reading file:  /pkg/xfab2/XKIT/xh018/cadence/v9_0/spectre/v9_0_2/lpmos/models/cap/ctmmh5.scs
Reading file:  /pkg/xfab2/XKIT/xh018/cadence/v9_0/spectre/v9_0_2/lpmos/models/cap/ctmmh5t.scs
Reading file:  /pkg/xfab2/XKIT/xh018/cadence/v9_0/spectre/v9_0_2/lpmos/models/cap/mosvc.scs
Reading file:  /pkg/xfab2/XKIT/xh018/cadence/v9_0/spectre/v9_0_2/lpmos/models/cap/mosvc_pmos.scs
Reading file:  /pkg/xfab2/XKIT/xh018/cadence/v9_0/spectre/v9_0_2/lpmos/models/cap/mosvci.scs
Reading file:  /pkg/xfab2/XKIT/xh018/cadence/v9_0/spectre/v9_0_2/lpmos/models/cap/mosvci_nmos.scs
Reading file:  /pkg/xfab2/XKIT/xh018/cadence/v9_0/spectre/v9_0_2/lpmos/models/cap/mosvci_m.scs
Reading file:  /pkg/xfab2/XKIT/xh018/cadence/v9_0/spectre/v9_0_2/lpmos/models/cap/mosvc3.scs
Reading file:  /pkg/xfab2/XKIT/xh018/cadence/v9_0/spectre/v9_0_2/lpmos/models/cap/mosvc3_pmos.scs
Reading file:  /pkg/xfab2/XKIT/xh018/cadence/v9_0/spectre/v9_0_2/lpmos/models/cap/mosvc3i.scs
Reading file:  /pkg/xfab2/XKIT/xh018/cadence/v9_0/spectre/v9_0_2/lpmos/models/cap/mosvc3i_nmos.scs
Reading file:  /pkg/xfab2/XKIT/xh018/cadence/v9_0/spectre/v9_0_2/lpmos/models/cap/mosvc3i_m.scs
Reading file:  /pkg/xfab2/XKIT/xh018/cadence/v9_0/spectre/v9_0_2/lpmos/models/cap/cpod.scs
Reading file:  /pkg/xfab2/XKIT/xh018/cadence/v9_0/spectre/v9_0_2/lpmos/models/cap/cpod_i.scs
Reading file:  /pkg/xfab2/XKIT/xh018/cadence/v9_0/spectre/v9_0_2/lpmos/models/cap/cpodhv.scs
Reading file:  /pkg/xfab2/XKIT/xh018/cadence/v9_0/spectre/v9_0_2/lpmos/models/cap/cpodhv_i.scs
Reading file:  /pkg/xfab2/XKIT/xh018/cadence/v9_0/spectre/v9_0_2/lpmos/models/cap/cp1sub.scs
Reading file:  /pkg/xfab2/XKIT/xh018/cadence/v9_0/spectre/v9_0_2/lpmos/models/cap/cp1suba.scs
Reading file:  /pkg/xfab2/XKIT/xh018/cadence/v9_0/spectre/v9_0_2/lpmos/models/cap/cp1subp.scs
Reading file:  /pkg/xfab2/XKIT/xh018/cadence/v9_0/spectre/v9_0_2/lpmos/models/cap/tag_25v.scs
Reading file:  /pkg/xfab2/XKIT/xh018/cadence/v9_0/spectre/v9_0_2/lpmos/models/cap/tag_60v.scs
Reading file:  /pkg/xfab2/XKIT/xh018/cadence/v9_0/spectre/v9_0_2/lpmos/dio.scs
Reading file:  /pkg/xfab2/XKIT/xh018/cadence/v9_0/spectre/v9_0_2/lpmos/models/dio/tm_dio.scs
Reading file:  /pkg/xfab2/XKIT/xh018/cadence/v9_0/spectre/v9_0_2/lpmos/models/dio/dn.scs
Reading file:  /pkg/xfab2/XKIT/xh018/cadence/v9_0/spectre/v9_0_2/lpmos/models/dio/dp.scs
Reading file:  /pkg/xfab2/XKIT/xh018/cadence/v9_0/spectre/v9_0_2/lpmos/models/dio/dnw.scs
Reading file:  /pkg/xfab2/XKIT/xh018/cadence/v9_0/spectre/v9_0_2/lpmos/models/dio/dn3.scs
Reading file:  /pkg/xfab2/XKIT/xh018/cadence/v9_0/spectre/v9_0_2/lpmos/models/dio/dnn3.scs
Reading file:  /pkg/xfab2/XKIT/xh018/cadence/v9_0/spectre/v9_0_2/lpmos/models/dio/dp3.scs
Reading file:  /pkg/xfab2/XKIT/xh018/cadence/v9_0/spectre/v9_0_2/lpmos/models/dio/dnw3.scs
Reading file:  /pkg/xfab2/XKIT/xh018/cadence/v9_0/spectre/v9_0_2/lpmos/models/dio/ddnwmv.scs
Reading file:  /pkg/xfab2/XKIT/xh018/cadence/v9_0/spectre/v9_0_2/lpmos/models/dio/dpdnwmv.scs
Reading file:  /pkg/xfab2/XKIT/xh018/cadence/v9_0/spectre/v9_0_2/lpmos/models/dio/dipdnwmv.scs
Reading file:  /pkg/xfab2/XKIT/xh018/cadence/v9_0/spectre/v9_0_2/lpmos/models/dio/ddnw.scs
Reading file:  /pkg/xfab2/XKIT/xh018/cadence/v9_0/spectre/v9_0_2/lpmos/models/dio/dpdnw.scs
Reading file:  /pkg/xfab2/XKIT/xh018/cadence/v9_0/spectre/v9_0_2/lpmos/models/dio/dipdnw.scs
Reading file:  /pkg/xfab2/XKIT/xh018/cadence/v9_0/spectre/v9_0_2/lpmos/models/dio/dnhpw.scs
Reading file:  /pkg/xfab2/XKIT/xh018/cadence/v9_0/spectre/v9_0_2/lpmos/models/dio/dnhpwa.scs
Reading file:  /pkg/xfab2/XKIT/xh018/cadence/v9_0/spectre/v9_0_2/lpmos/models/dio/dphnw.scs
Reading file:  /pkg/xfab2/XKIT/xh018/cadence/v9_0/spectre/v9_0_2/lpmos/models/dio/dphnwa.scs
Reading file:  /pkg/xfab2/XKIT/xh018/cadence/v9_0/spectre/v9_0_2/lpmos/models/dio/dhpw.scs
Reading file:  /pkg/xfab2/XKIT/xh018/cadence/v9_0/spectre/v9_0_2/lpmos/models/dio/dhnw.scs
Reading file:  /pkg/xfab2/XKIT/xh018/cadence/v9_0/spectre/v9_0_2/lpmos/models/dio/dndf.scs
Reading file:  /pkg/xfab2/XKIT/xh018/cadence/v9_0/spectre/v9_0_2/lpmos/models/dio/dpdwhn.scs
Reading file:  /pkg/xfab2/XKIT/xh018/cadence/v9_0/spectre/v9_0_2/lpmos/models/dio/dwhn.scs
Reading file:  /pkg/xfab2/XKIT/xh018/cadence/v9_0/spectre/v9_0_2/lpmos/models/dio/dpwhn.scs
Reading file:  /pkg/xfab2/XKIT/xh018/cadence/v9_0/spectre/v9_0_2/lpmos/models/dio/dpndf.scs
Reading file:  /pkg/xfab2/XKIT/xh018/cadence/v9_0/spectre/v9_0_2/lpmos/models/dio/dpdddnw.scs
Reading file:  /pkg/xfab2/XKIT/xh018/cadence/v9_0/spectre/v9_0_2/lpmos/models/dio/ddpldnw.scs
Reading file:  /pkg/xfab2/XKIT/xh018/cadence/v9_0/spectre/v9_0_2/lpmos/models/dio/dn3dpl.scs
Reading file:  /pkg/xfab2/XKIT/xh018/cadence/v9_0/spectre/v9_0_2/lpmos/models/dio/dbn.scs
Reading file:  /pkg/xfab2/XKIT/xh018/cadence/v9_0/spectre/v9_0_2/lpmos/models/dio/dpol.scs
Reading file:  /pkg/xfab2/XKIT/xh018/cadence/v9_0/spectre/v9_0_2/lpmos/models/dio/dnpdd_scr.scs
Reading file:  /pkg/xfab2/XKIT/xh018/cadence/v9_0/spectre/v9_0_2/lpmos/models/dio/dpdd_scr.scs
Reading file:  /pkg/xfab2/XKIT/xh018/cadence/v9_0/spectre/v9_0_2/lpmos/models/dio/dsb.scs
Reading file:  /pkg/xfab2/XKIT/xh018/cadence/v9_0/spectre/v9_0_2/lpmos/models/dio/dsba.scs
Reading file:  /pkg/xfab2/XKIT/xh018/cadence/v9_0/spectre/v9_0_2/lpmos/models/dio/dsba_qp1.scs
Reading file:  /pkg/xfab2/XKIT/xh018/cadence/v9_0/spectre/v9_0_2/lpmos/models/dio/dnp20.scs
Reading file:  /pkg/xfab2/XKIT/xh018/cadence/v9_0/spectre/v9_0_2/lpmos/models/dio/dpp20.scs
Reading file:  /pkg/xfab2/XKIT/xh018/cadence/v9_0/spectre/v9_0_2/lpmos/models/dio/dn3sci.scs
Reading file:  /pkg/xfab2/XKIT/xh018/cadence/v9_0/spectre/v9_0_2/lpmos/models/dio/dscidnwmv.scs
Reading file:  /pkg/xfab2/XKIT/xh018/cadence/v9_0/spectre/v9_0_2/lpmos/mos.scs
Reading file:  /pkg/xfab2/XKIT/xh018/cadence/v9_0/spectre/v9_0_2/lpmos/models/mos/tm_mos.scs
Reading file:  /pkg/xfab2/XKIT/xh018/cadence/v9_0/spectre/v9_0_2/lpmos/models/mos/ne.scs
Reading file:  /pkg/xfab2/XKIT/xh018/cadence/v9_0/spectre/v9_0_2/lpmos/models/mos/nei.scs
Reading file:  /pkg/xfab2/XKIT/xh018/cadence/v9_0/spectre/v9_0_2/lpmos/models/mos/nei_6.scs
Reading file:  /pkg/xfab2/XKIT/xh018/cadence/v9_0/spectre/v9_0_2/lpmos/models/mos/nei_m_6.scs
Reading file:  /pkg/xfab2/XKIT/xh018/cadence/v9_0/spectre/v9_0_2/lpmos/models/mos/pe.scs
Reading file:  /pkg/xfab2/XKIT/xh018/cadence/v9_0/spectre/v9_0_2/lpmos/models/mos/pe_5.scs
Reading file:  /pkg/xfab2/XKIT/xh018/cadence/v9_0/spectre/v9_0_2/lpmos/models/mos/pei.scs
Reading file:  /pkg/xfab2/XKIT/xh018/cadence/v9_0/spectre/v9_0_2/lpmos/models/mos/pei_5.scs
Reading file:  /pkg/xfab2/XKIT/xh018/cadence/v9_0/spectre/v9_0_2/lpmos/models/mos/pei_m_5.scs
Reading file:  /pkg/xfab2/XKIT/xh018/cadence/v9_0/spectre/v9_0_2/lpmos/models/mos/nel.scs
Reading file:  /pkg/xfab2/XKIT/xh018/cadence/v9_0/spectre/v9_0_2/lpmos/models/mos/neli.scs
Reading file:  /pkg/xfab2/XKIT/xh018/cadence/v9_0/spectre/v9_0_2/lpmos/models/mos/neli_6.scs
Reading file:  /pkg/xfab2/XKIT/xh018/cadence/v9_0/spectre/v9_0_2/lpmos/models/mos/neli_m_6.scs
Reading file:  /pkg/xfab2/XKIT/xh018/cadence/v9_0/spectre/v9_0_2/lpmos/models/mos/pel.scs
Reading file:  /pkg/xfab2/XKIT/xh018/cadence/v9_0/spectre/v9_0_2/lpmos/models/mos/pel_5.scs
Reading file:  /pkg/xfab2/XKIT/xh018/cadence/v9_0/spectre/v9_0_2/lpmos/models/mos/peli.scs
Reading file:  /pkg/xfab2/XKIT/xh018/cadence/v9_0/spectre/v9_0_2/lpmos/models/mos/peli_5.scs
Reading file:  /pkg/xfab2/XKIT/xh018/cadence/v9_0/spectre/v9_0_2/lpmos/models/mos/peli_m_5.scs
Reading file:  /pkg/xfab2/XKIT/xh018/cadence/v9_0/spectre/v9_0_2/lpmos/models/mos/nn3.scs
Reading file:  /pkg/xfab2/XKIT/xh018/cadence/v9_0/spectre/v9_0_2/lpmos/models/mos/ne3.scs
Reading file:  /pkg/xfab2/XKIT/xh018/cadence/v9_0/spectre/v9_0_2/lpmos/models/mos/ne3i.scs
Reading file:  /pkg/xfab2/XKIT/xh018/cadence/v9_0/spectre/v9_0_2/lpmos/models/mos/ne3i_6.scs
Reading file:  /pkg/xfab2/XKIT/xh018/cadence/v9_0/spectre/v9_0_2/lpmos/models/mos/ne3i_m_6.scs
Reading file:  /pkg/xfab2/XKIT/xh018/cadence/v9_0/spectre/v9_0_2/lpmos/models/mos/pe3.scs
Reading file:  /pkg/xfab2/XKIT/xh018/cadence/v9_0/spectre/v9_0_2/lpmos/models/mos/pe3_5.scs
Reading file:  /pkg/xfab2/XKIT/xh018/cadence/v9_0/spectre/v9_0_2/lpmos/models/mos/pe3i.scs
Reading file:  /pkg/xfab2/XKIT/xh018/cadence/v9_0/spectre/v9_0_2/lpmos/models/mos/pe3i_5.scs
Reading file:  /pkg/xfab2/XKIT/xh018/cadence/v9_0/spectre/v9_0_2/lpmos/models/mos/pe3i_m_5.scs
Reading file:  /pkg/xfab2/XKIT/xh018/cadence/v9_0/spectre/v9_0_2/lpmos/models/mos/pe3ln.scs
Reading file:  /pkg/xfab2/XKIT/xh018/cadence/v9_0/spectre/v9_0_2/lpmos/models/mos/pe3ln_5.scs
Reading file:  /pkg/xfab2/XKIT/xh018/cadence/v9_0/spectre/v9_0_2/lpmos/models/mos/pe3lni.scs
Reading file:  /pkg/xfab2/XKIT/xh018/cadence/v9_0/spectre/v9_0_2/lpmos/models/mos/pe3lni_5.scs
Reading file:  /pkg/xfab2/XKIT/xh018/cadence/v9_0/spectre/v9_0_2/lpmos/models/mos/pe3lni_m_5.scs
Reading file:  /pkg/xfab2/XKIT/xh018/cadence/v9_0/spectre/v9_0_2/lpmos/models/mos/nd3.scs
Reading file:  /pkg/xfab2/XKIT/xh018/cadence/v9_0/spectre/v9_0_2/lpmos/models/mos/nd3_mos1.scs
Reading file:  /pkg/xfab2/XKIT/xh018/cadence/v9_0/spectre/v9_0_2/lpmos/models/mos/nd3_mos2.scs
Reading file:  /pkg/xfab2/XKIT/xh018/cadence/v9_0/spectre/v9_0_2/lpmos/models/mos/nd3i.scs
Reading file:  /pkg/xfab2/XKIT/xh018/cadence/v9_0/spectre/v9_0_2/lpmos/models/mos/nd3i_mos1.scs
Reading file:  /pkg/xfab2/XKIT/xh018/cadence/v9_0/spectre/v9_0_2/lpmos/models/mos/nd3i_mos2.scs
Reading file:  /pkg/xfab2/XKIT/xh018/cadence/v9_0/spectre/v9_0_2/lpmos/models/mos/nd3i_6.scs
Reading file:  /pkg/xfab2/XKIT/xh018/cadence/v9_0/spectre/v9_0_2/lpmos/models/mos/nd3i_m_6.scs
Reading file:  /pkg/xfab2/XKIT/xh018/cadence/v9_0/spectre/v9_0_2/lpmos/models/mos/nelna.scs
Reading file:  /pkg/xfab2/XKIT/xh018/cadence/v9_0/spectre/v9_0_2/lpmos/models/mos/nelnai.scs
Reading file:  /pkg/xfab2/XKIT/xh018/cadence/v9_0/spectre/v9_0_2/lpmos/models/mos/nelnai_6.scs
Reading file:  /pkg/xfab2/XKIT/xh018/cadence/v9_0/spectre/v9_0_2/lpmos/models/mos/nelnai_m_6.scs
Reading file:  /pkg/xfab2/XKIT/xh018/cadence/v9_0/spectre/v9_0_2/lpmos/models/mos/ne3lna.scs
Reading file:  /pkg/xfab2/XKIT/xh018/cadence/v9_0/spectre/v9_0_2/lpmos/models/mos/ne3lnai.scs
Reading file:  /pkg/xfab2/XKIT/xh018/cadence/v9_0/spectre/v9_0_2/lpmos/models/mos/ne3lnai_6.scs
Reading file:  /pkg/xfab2/XKIT/xh018/cadence/v9_0/spectre/v9_0_2/lpmos/models/mos/ne3lnai_m_6.scs
Reading file:  /pkg/xfab2/XKIT/xh018/cadence/v9_0/spectre/v9_0_2/lpmos/models/mos/pe3lna.scs
Reading file:  /pkg/xfab2/XKIT/xh018/cadence/v9_0/spectre/v9_0_2/lpmos/models/mos/pe3lna_5.scs
Reading file:  /pkg/xfab2/XKIT/xh018/cadence/v9_0/spectre/v9_0_2/lpmos/models/mos/pe3lnai.scs
Reading file:  /pkg/xfab2/XKIT/xh018/cadence/v9_0/spectre/v9_0_2/lpmos/models/mos/pe3lnai_5.scs
Reading file:  /pkg/xfab2/XKIT/xh018/cadence/v9_0/spectre/v9_0_2/lpmos/models/mos/pe3lnai_m_5.scs
Reading file:  /pkg/xfab2/XKIT/xh018/cadence/v9_0/spectre/v9_0_2/lpmos/models/mos/nmma.scs
Reading file:  /pkg/xfab2/XKIT/xh018/cadence/v9_0/spectre/v9_0_2/lpmos/models/mos/jf_nmma.scs
Reading file:  /pkg/xfab2/XKIT/xh018/cadence/v9_0/spectre/v9_0_2/lpmos/models/mos/nmma_bjt.scs
Reading file:  /pkg/xfab2/XKIT/xh018/cadence/v9_0/spectre/v9_0_2/lpmos/models/mos/pmma.scs
Reading file:  /pkg/xfab2/XKIT/xh018/cadence/v9_0/spectre/v9_0_2/lpmos/models/mos/jf_pmma.scs
Reading file:  /pkg/xfab2/XKIT/xh018/cadence/v9_0/spectre/v9_0_2/lpmos/models/mos/pmma_bjt.scs
Reading file:  /pkg/xfab2/XKIT/xh018/cadence/v9_0/spectre/v9_0_2/lpmos/models/mos/nedi.scs
Reading file:  /pkg/xfab2/XKIT/xh018/cadence/v9_0/spectre/v9_0_2/lpmos/models/mos/nedi_bjt.scs
Reading file:  /pkg/xfab2/XKIT/xh018/cadence/v9_0/spectre/v9_0_2/lpmos/models/mos/nedia.scs
Reading file:  /pkg/xfab2/XKIT/xh018/cadence/v9_0/spectre/v9_0_2/lpmos/models/mos/nedia_bjt.scs
Reading file:  /pkg/xfab2/XKIT/xh018/cadence/v9_0/spectre/v9_0_2/lpmos/models/mos/ped2.scs
Reading file:  /pkg/xfab2/XKIT/xh018/cadence/v9_0/spectre/v9_0_2/lpmos/models/mos/ped2_bjt.scs
Reading file:  /pkg/xfab2/XKIT/xh018/cadence/v9_0/spectre/v9_0_2/lpmos/models/mos/ped.scs
Reading file:  /pkg/xfab2/XKIT/xh018/cadence/v9_0/spectre/v9_0_2/lpmos/models/mos/ped_bjt.scs
Reading file:  /pkg/xfab2/XKIT/xh018/cadence/v9_0/spectre/v9_0_2/lpmos/models/mos/nhv.scs
Reading file:  /pkg/xfab2/XKIT/xh018/cadence/v9_0/spectre/v9_0_2/lpmos/models/mos/nhv_mos2.scs
Reading file:  /pkg/xfab2/XKIT/xh018/cadence/v9_0/spectre/v9_0_2/lpmos/models/mos/nhv_bjt.scs
Reading file:  /pkg/xfab2/XKIT/xh018/cadence/v9_0/spectre/v9_0_2/lpmos/models/mos/nhhv.scs
Reading file:  /pkg/xfab2/XKIT/xh018/cadence/v9_0/spectre/v9_0_2/lpmos/models/mos/nhhv_mos2.scs
Reading file:  /pkg/xfab2/XKIT/xh018/cadence/v9_0/spectre/v9_0_2/lpmos/models/mos/nhhv_bjt.scs
Reading file:  /pkg/xfab2/XKIT/xh018/cadence/v9_0/spectre/v9_0_2/lpmos/models/mos/nmmc.scs
Reading file:  /pkg/xfab2/XKIT/xh018/cadence/v9_0/spectre/v9_0_2/lpmos/models/mos/nmmc_mos2.scs
Reading file:  /pkg/xfab2/XKIT/xh018/cadence/v9_0/spectre/v9_0_2/lpmos/models/mos/nmmc_bjt.scs
Reading file:  /pkg/xfab2/XKIT/xh018/cadence/v9_0/spectre/v9_0_2/lpmos/models/mos/nmmd.scs
Reading file:  /pkg/xfab2/XKIT/xh018/cadence/v9_0/spectre/v9_0_2/lpmos/models/mos/nmmd_mos2.scs
Reading file:  /pkg/xfab2/XKIT/xh018/cadence/v9_0/spectre/v9_0_2/lpmos/models/mos/nmmd_bjt.scs
Reading file:  /pkg/xfab2/XKIT/xh018/cadence/v9_0/spectre/v9_0_2/lpmos/models/mos/nmc.scs
Reading file:  /pkg/xfab2/XKIT/xh018/cadence/v9_0/spectre/v9_0_2/lpmos/models/mos/nmc_mos2.scs
Reading file:  /pkg/xfab2/XKIT/xh018/cadence/v9_0/spectre/v9_0_2/lpmos/models/mos/nmc_bjt.scs
Reading file:  /pkg/xfab2/XKIT/xh018/cadence/v9_0/spectre/v9_0_2/lpmos/models/mos/nma.scs
Reading file:  /pkg/xfab2/XKIT/xh018/cadence/v9_0/spectre/v9_0_2/lpmos/models/mos/nma_bjt.scs
Reading file:  /pkg/xfab2/XKIT/xh018/cadence/v9_0/spectre/v9_0_2/lpmos/models/mos/phv.scs
Reading file:  /pkg/xfab2/XKIT/xh018/cadence/v9_0/spectre/v9_0_2/lpmos/models/mos/phv_mos2.scs
Reading file:  /pkg/xfab2/XKIT/xh018/cadence/v9_0/spectre/v9_0_2/lpmos/models/mos/phv_bjt.scs
Reading file:  /pkg/xfab2/XKIT/xh018/cadence/v9_0/spectre/v9_0_2/lpmos/models/mos/phhv.scs
Reading file:  /pkg/xfab2/XKIT/xh018/cadence/v9_0/spectre/v9_0_2/lpmos/models/mos/phhv_mos2.scs
Reading file:  /pkg/xfab2/XKIT/xh018/cadence/v9_0/spectre/v9_0_2/lpmos/models/mos/phhv_bjt.scs
Reading file:  /pkg/xfab2/XKIT/xh018/cadence/v9_0/spectre/v9_0_2/lpmos/models/mos/pmc.scs
Reading file:  /pkg/xfab2/XKIT/xh018/cadence/v9_0/spectre/v9_0_2/lpmos/models/mos/pmc_mos2.scs
Reading file:  /pkg/xfab2/XKIT/xh018/cadence/v9_0/spectre/v9_0_2/lpmos/models/mos/pmc_bjt.scs
Reading file:  /pkg/xfab2/XKIT/xh018/cadence/v9_0/spectre/v9_0_2/lpmos/models/mos/pmmc.scs
Reading file:  /pkg/xfab2/XKIT/xh018/cadence/v9_0/spectre/v9_0_2/lpmos/models/mos/pmmc_mos2.scs
Reading file:  /pkg/xfab2/XKIT/xh018/cadence/v9_0/spectre/v9_0_2/lpmos/models/mos/pmmc_bjt.scs
Reading file:  /pkg/xfab2/XKIT/xh018/cadence/v9_0/spectre/v9_0_2/lpmos/models/mos/pma.scs
Reading file:  /pkg/xfab2/XKIT/xh018/cadence/v9_0/spectre/v9_0_2/lpmos/models/mos/pma_bjt.scs
Reading file:  /pkg/xfab2/XKIT/xh018/cadence/v9_0/spectre/v9_0_2/lpmos/models/mos/pmb.scs
Reading file:  /pkg/xfab2/XKIT/xh018/cadence/v9_0/spectre/v9_0_2/lpmos/models/mos/nesvt.scs
Reading file:  /pkg/xfab2/XKIT/xh018/cadence/v9_0/spectre/v9_0_2/lpmos/models/mos/nesvti.scs
Reading file:  /pkg/xfab2/XKIT/xh018/cadence/v9_0/spectre/v9_0_2/lpmos/models/mos/nesvti_6.scs
Reading file:  /pkg/xfab2/XKIT/xh018/cadence/v9_0/spectre/v9_0_2/lpmos/models/mos/nesvti_m_6.scs
Reading file:  /pkg/xfab2/XKIT/xh018/cadence/v9_0/spectre/v9_0_2/lpmos/models/mos/pesvt.scs
Reading file:  /pkg/xfab2/XKIT/xh018/cadence/v9_0/spectre/v9_0_2/lpmos/models/mos/pesvt_5.scs
Reading file:  /pkg/xfab2/XKIT/xh018/cadence/v9_0/spectre/v9_0_2/lpmos/models/mos/pesvti.scs
Reading file:  /pkg/xfab2/XKIT/xh018/cadence/v9_0/spectre/v9_0_2/lpmos/models/mos/pesvti_5.scs
Reading file:  /pkg/xfab2/XKIT/xh018/cadence/v9_0/spectre/v9_0_2/lpmos/models/mos/pesvti_m_5.scs
Reading file:  /pkg/xfab2/XKIT/xh018/cadence/v9_0/spectre/v9_0_2/lpmos/models/mos/nhvd.scs
Reading file:  /pkg/xfab2/XKIT/xh018/cadence/v9_0/spectre/v9_0_2/lpmos/models/mos/nhvd_bjt.scs
Reading file:  /pkg/xfab2/XKIT/xh018/cadence/v9_0/spectre/v9_0_2/lpmos/models/mos/nhhvd.scs
Reading file:  /pkg/xfab2/XKIT/xh018/cadence/v9_0/spectre/v9_0_2/lpmos/models/mos/nhhvd_bjt.scs
Reading file:  /pkg/xfab2/XKIT/xh018/cadence/v9_0/spectre/v9_0_2/lpmos/photo.scs
Reading file:  /pkg/xfab2/XKIT/xh018/cadence/v9_0/spectre/v9_0_2/lpmos/models/photo/tm_pho.scs
Reading file:  /pkg/xfab2/XKIT/xh018/cadence/v9_0/spectre/v9_0_2/lpmos/models/photo/dphoa.scs
Reading file:  /pkg/xfab2/XKIT/xh018/cadence/v9_0/spectre/v9_0_2/lpmos/models/photo/dpho.va
Reading link:  /pkg/cadence/installs/SPECTRE231/tools.lnx86/spectre/etc/ahdl/constants.h
Reading file:  /pkg/cadence/installs/SPECTRE231/tools.lnx86/spectre/etc/ahdl/constants.vams
Reading link:  /pkg/cadence/installs/SPECTRE231/tools.lnx86/spectre/etc/ahdl/discipline.h
Reading file:  /pkg/cadence/installs/SPECTRE231/tools.lnx86/spectre/etc/ahdl/disciplines.vams
Reading file:  /pkg/xfab2/XKIT/xh018/cadence/v9_0/spectre/v9_0_2/lpmos/models/photo/dphob.scs
Reading file:  /pkg/xfab2/XKIT/xh018/cadence/v9_0/spectre/v9_0_2/lpmos/models/photo/dphoc.scs
Reading file:  /pkg/xfab2/XKIT/xh018/cadence/v9_0/spectre/v9_0_2/lpmos/models/photo/iphoto_uv.va
Reading file:  /pkg/xfab2/XKIT/xh018/cadence/v9_0/spectre/v9_0_2/lpmos/models/photo/dphoc_cat.scs
Reading file:  /pkg/xfab2/XKIT/xh018/cadence/v9_0/spectre/v9_0_2/lpmos/models/photo/dphoc0.scs
Reading file:  /pkg/xfab2/XKIT/xh018/cadence/v9_0/spectre/v9_0_2/lpmos/models/photo/dphoc0_cat.scs
Reading file:  /pkg/xfab2/XKIT/xh018/cadence/v9_0/spectre/v9_0_2/lpmos/models/photo/dphocfp.scs
Reading file:  /pkg/xfab2/XKIT/xh018/cadence/v9_0/spectre/v9_0_2/lpmos/models/photo/dphocfp_cat.scs
Reading file:  /pkg/xfab2/XKIT/xh018/cadence/v9_0/spectre/v9_0_2/lpmos/models/photo/dphod.scs
Reading file:  /pkg/xfab2/XKIT/xh018/cadence/v9_0/spectre/v9_0_2/lpmos/models/photo/dphod_an1.scs
Reading file:  /pkg/xfab2/XKIT/xh018/cadence/v9_0/spectre/v9_0_2/lpmos/models/photo/dphod_an2.scs
Reading file:  /pkg/xfab2/XKIT/xh018/cadence/v9_0/spectre/v9_0_2/lpmos/models/photo/dphod0.scs
Reading file:  /pkg/xfab2/XKIT/xh018/cadence/v9_0/spectre/v9_0_2/lpmos/models/photo/dphod0_an1.scs
Reading file:  /pkg/xfab2/XKIT/xh018/cadence/v9_0/spectre/v9_0_2/lpmos/models/photo/dphod0_an2.scs
Reading file:  /pkg/xfab2/XKIT/xh018/cadence/v9_0/spectre/v9_0_2/lpmos/models/photo/dphodfp.scs
Reading file:  /pkg/xfab2/XKIT/xh018/cadence/v9_0/spectre/v9_0_2/lpmos/models/photo/dphodfp_an1.scs
Reading file:  /pkg/xfab2/XKIT/xh018/cadence/v9_0/spectre/v9_0_2/lpmos/models/photo/dphodfp_an2.scs
Reading file:  /pkg/xfab2/XKIT/xh018/cadence/v9_0/spectre/v9_0_2/lpmos/models/photo/dspada0.scs
Reading file:  /pkg/xfab2/XKIT/xh018/cadence/v9_0/spectre/v9_0_2/lpmos/models/photo/ispad.va
Reading file:  /pkg/xfab2/XKIT/xh018/cadence/v9_0/spectre/v9_0_2/lpmos/models/photo/dapb.scs
Reading file:  /pkg/xfab2/XKIT/xh018/cadence/v9_0/spectre/v9_0_2/lpmos/models/photo/iphoto_apd_trig.va
Reading file:  /pkg/xfab2/XKIT/xh018/cadence/v9_0/spectre/v9_0_2/lpmos/models/photo/dapb_jun.scs
Reading file:  /pkg/xfab2/XKIT/xh018/cadence/v9_0/spectre/v9_0_2/lpmos/models/photo/dapb_trig.scs
Reading file:  /pkg/xfab2/XKIT/xh018/cadence/v9_0/spectre/v9_0_2/lpmos/models/photo/dapb0.scs
Reading file:  /pkg/xfab2/XKIT/xh018/cadence/v9_0/spectre/v9_0_2/lpmos/models/photo/dapb0_jun.scs
Reading file:  /pkg/xfab2/XKIT/xh018/cadence/v9_0/spectre/v9_0_2/lpmos/models/photo/dspb.scs
Reading file:  /pkg/xfab2/XKIT/xh018/cadence/v9_0/spectre/v9_0_2/lpmos/models/photo/ispad_trig.va
Reading file:  /pkg/xfab2/XKIT/xh018/cadence/v9_0/spectre/v9_0_2/lpmos/models/photo/dspb_jun.scs
Reading file:  /pkg/xfab2/XKIT/xh018/cadence/v9_0/spectre/v9_0_2/lpmos/models/photo/dspb_trig.scs
Reading file:  /pkg/xfab2/XKIT/xh018/cadence/v9_0/spectre/v9_0_2/lpmos/models/photo/dspb0.scs
Reading file:  /pkg/xfab2/XKIT/xh018/cadence/v9_0/spectre/v9_0_2/lpmos/models/photo/dspb0_jun.scs
Reading file:  /pkg/xfab2/XKIT/xh018/cadence/v9_0/spectre/v9_0_2/lpmos/models/photo/dspbfep.scs
Reading file:  /pkg/xfab2/XKIT/xh018/cadence/v9_0/spectre/v9_0_2/lpmos/models/photo/dapda.scs
Reading file:  /pkg/xfab2/XKIT/xh018/cadence/v9_0/spectre/v9_0_2/lpmos/models/photo/iphoto_apd.va
Reading file:  /pkg/xfab2/XKIT/xh018/cadence/v9_0/spectre/v9_0_2/lpmos/models/photo/dapda_cat.scs
Reading file:  /pkg/xfab2/XKIT/xh018/cadence/v9_0/spectre/v9_0_2/lpmos/models/photo/dapda0.scs
Reading file:  /pkg/xfab2/XKIT/xh018/cadence/v9_0/spectre/v9_0_2/lpmos/models/photo/dspada.scs
Reading file:  /pkg/xfab2/XKIT/xh018/cadence/v9_0/spectre/v9_0_2/lpmos/models/photo/dspada_cat.scs
Reading file:  /pkg/xfab2/XKIT/xh018/cadence/v9_0/spectre/v9_0_2/lpmos/res.scs
Reading file:  /pkg/xfab2/XKIT/xh018/cadence/v9_0/spectre/v9_0_2/lpmos/models/res/tm_res.scs
Reading file:  /pkg/xfab2/XKIT/xh018/cadence/v9_0/spectre/v9_0_2/lpmos/models/res/rdn.scs
Reading file:  /pkg/xfab2/XKIT/xh018/cadence/v9_0/spectre/v9_0_2/lpmos/models/res/rdn_esd.scs
Reading file:  /pkg/xfab2/XKIT/xh018/cadence/v9_0/spectre/v9_0_2/lpmos/models/res/rdp.scs
Reading file:  /pkg/xfab2/XKIT/xh018/cadence/v9_0/spectre/v9_0_2/lpmos/models/res/rdp_io.scs
Reading file:  /pkg/xfab2/XKIT/xh018/cadence/v9_0/spectre/v9_0_2/lpmos/models/res/rdp_esd.scs
Reading file:  /pkg/xfab2/XKIT/xh018/cadence/v9_0/spectre/v9_0_2/lpmos/models/res/rnw.scs
Reading file:  /pkg/xfab2/XKIT/xh018/cadence/v9_0/spectre/v9_0_2/lpmos/models/res/rnw_scr.scs
Reading file:  /pkg/xfab2/XKIT/xh018/cadence/v9_0/spectre/v9_0_2/lpmos/models/res/rdn3.scs
Reading file:  /pkg/xfab2/XKIT/xh018/cadence/v9_0/spectre/v9_0_2/lpmos/models/res/rdp3.scs
Reading file:  /pkg/xfab2/XKIT/xh018/cadence/v9_0/spectre/v9_0_2/lpmos/models/res/rnw3.scs
Reading file:  /pkg/xfab2/XKIT/xh018/cadence/v9_0/spectre/v9_0_2/lpmos/models/res/rnw3_scr.scs
Reading file:  /pkg/xfab2/XKIT/xh018/cadence/v9_0/spectre/v9_0_2/lpmos/models/res/rdnwmv.scs
Reading file:  /pkg/xfab2/XKIT/xh018/cadence/v9_0/spectre/v9_0_2/lpmos/models/res/rnp1.scs
Reading file:  /pkg/xfab2/XKIT/xh018/cadence/v9_0/spectre/v9_0_2/lpmos/models/res/rnp1_3.scs
Reading file:  /pkg/xfab2/XKIT/xh018/cadence/v9_0/spectre/v9_0_2/lpmos/models/res/rpp1.scs
Reading file:  /pkg/xfab2/XKIT/xh018/cadence/v9_0/spectre/v9_0_2/lpmos/models/res/rpp1_3.scs
Reading file:  /pkg/xfab2/XKIT/xh018/cadence/v9_0/spectre/v9_0_2/lpmos/models/res/rpp1s.scs
Reading file:  /pkg/xfab2/XKIT/xh018/cadence/v9_0/spectre/v9_0_2/lpmos/models/res/rpp1s_3.scs
Reading file:  /pkg/xfab2/XKIT/xh018/cadence/v9_0/spectre/v9_0_2/lpmos/models/res/rnp1h.scs
Reading file:  /pkg/xfab2/XKIT/xh018/cadence/v9_0/spectre/v9_0_2/lpmos/models/res/rnp1h_3.scs
Reading file:  /pkg/xfab2/XKIT/xh018/cadence/v9_0/spectre/v9_0_2/lpmos/models/res/rpp1k1.scs
Reading file:  /pkg/xfab2/XKIT/xh018/cadence/v9_0/spectre/v9_0_2/lpmos/models/res/rpp1k1_3.scs
Reading file:  /pkg/xfab2/XKIT/xh018/cadence/v9_0/spectre/v9_0_2/lpmos/models/res/rctdn.scs
Reading file:  /pkg/xfab2/XKIT/xh018/cadence/v9_0/spectre/v9_0_2/lpmos/models/res/rctdp.scs
Reading file:  /pkg/xfab2/XKIT/xh018/cadence/v9_0/spectre/v9_0_2/lpmos/models/res/rctp1.scs
Reading file:  /pkg/xfab2/XKIT/xh018/cadence/v9_0/spectre/v9_0_2/lpmos/models/res/rsildn.scs
Reading file:  /pkg/xfab2/XKIT/xh018/cadence/v9_0/spectre/v9_0_2/lpmos/models/res/rsildp.scs
Reading file:  /pkg/xfab2/XKIT/xh018/cadence/v9_0/spectre/v9_0_2/lpmos/models/res/rsilnp1.scs
Reading file:  /pkg/xfab2/XKIT/xh018/cadence/v9_0/spectre/v9_0_2/lpmos/models/res/rsilpp1.scs
Reading file:  /pkg/xfab2/XKIT/xh018/cadence/v9_0/spectre/v9_0_2/lpmos/models/res/rsbdn.scs
Reading file:  /pkg/xfab2/XKIT/xh018/cadence/v9_0/spectre/v9_0_2/lpmos/models/res/rsbdp.scs
Reading file:  /pkg/xfab2/XKIT/xh018/cadence/v9_0/spectre/v9_0_2/lpmos/models/res/rsbdn3.scs
Reading file:  /pkg/xfab2/XKIT/xh018/cadence/v9_0/spectre/v9_0_2/lpmos/models/res/rsbdp3.scs
Reading file:  /pkg/xfab2/XKIT/xh018/cadence/v9_0/spectre/v9_0_2/lpmos/models/res/rsbnp1.scs
Reading file:  /pkg/xfab2/XKIT/xh018/cadence/v9_0/spectre/v9_0_2/lpmos/models/res/rsbpp1.scs
Reading file:  /pkg/xfab2/XKIT/xh018/cadence/v9_0/spectre/v9_0_2/lpmos/models/res/rsbpp1k1.scs
Reading file:  /pkg/xfab2/XKIT/xh018/cadence/v9_0/spectre/v9_0_2/lpmos/models/res/rm1.scs
Reading file:  /pkg/xfab2/XKIT/xh018/cadence/v9_0/spectre/v9_0_2/lpmos/models/res/rm2.scs
Reading file:  /pkg/xfab2/XKIT/xh018/cadence/v9_0/spectre/v9_0_2/lpmos/models/res/rm3.scs
Reading file:  /pkg/xfab2/XKIT/xh018/cadence/v9_0/spectre/v9_0_2/lpmos/models/res/rm4.scs
Reading file:  /pkg/xfab2/XKIT/xh018/cadence/v9_0/spectre/v9_0_2/lpmos/models/res/rm5.scs
Reading file:  /pkg/xfab2/XKIT/xh018/cadence/v9_0/spectre/v9_0_2/lpmos/models/res/rmtp.scs
Reading file:  /pkg/xfab2/XKIT/xh018/cadence/v9_0/spectre/v9_0_2/lpmos/models/res/rmtpl.scs
Reading file:  /pkg/xfab2/XKIT/xh018/cadence/v9_0/spectre/v9_0_2/lpmos/models/res/pfuse.scs
Reading file:  /pkg/xfab2/XKIT/xh018/cadence/v9_0/spectre/v9_0_2/lpmos/models/res/s_res.scs
Time for NDB Parsing: CPU = 409.5 ms, elapsed = 496.02 ms.
Time accumulated: CPU = 562.426 ms, elapsed = 496.025 ms.
Peak resident memory used = 115 Mbytes.

Time for Elaboration: CPU = 25.796 ms, elapsed = 25.7039 ms.
Time accumulated: CPU = 588.375 ms, elapsed = 521.88 ms.
Peak resident memory used = 122 Mbytes.


Notice from spectre during hierarchy flattening.
    The value 'psf' specified for the 'checklimitdest' option will no longer be supported in future releases. Use 'spectre -h' to see other recommended values for the 'checklimitdest' option.



Warning from spectre during hierarchy flattening.
    WARNING (SPECTRE-8527): There are some nodes and instances removed from the netlist topology check. Check the circuit and correct the topology. Or use preserve_inst to keep them if necessary.

***********************************************
  Total removed instances 3 ( dangling 3, terminals connected together 0)  

Warning from spectre during hierarchy flattening.
    WARNING (SPECTRE-8529): Dangling instance. R13 is removed.
    WARNING (SPECTRE-8529): Dangling instance. C14 is removed.
    WARNING (SPECTRE-8529): Dangling instance. C13 is removed.


  Total removed nodes 2 ( dangling nodes 2, floating nodes 0 )

Warning from spectre during hierarchy flattening.
    WARNING (SPECTRE-8530): Dangling node. net2 is removed.
    WARNING (SPECTRE-8530): Dangling node. net1 is removed.

***********************************************
Time for EDB Visiting: CPU = 1.218 ms, elapsed = 1.21999 ms.
Time accumulated: CPU = 589.749 ms, elapsed = 523.255 ms.
Peak resident memory used = 123 Mbytes.


Notice from spectre during initial setup.
    Multithreading is disabled due to the size of the design being too small.


Global user options:
         psfversion = 1.4.0
            vabstol = 1e-06
            iabstol = 1e-12
               temp = 27
               gmin = 1e-12
             rforce = 1
           maxnotes = 5
           maxwarns = 5
             digits = 5
               cols = 80
             pivrel = 0.001
           sensfile = ../psf/sens.output
     checklimitdest = psf
               save = allpub
             reltol = 0.001
               tnom = 27
             scalem = 1
              scale = 1

Scoped user options:

Circuit inventory:
              nodes 7
          capacitor 10    
            isource 1     
           resistor 5     
               vccs 2     
            vsource 1     

Analysis and control statement inventory:
               info 6     
                 pz 1     

Output statements:
             .probe 0     
           .measure 0     
               save 0     


Notice from spectre during initial setup.
    APS enabled.

Time for parsing: CPU = 3.659 ms, elapsed = 9.43303 ms.
Time accumulated: CPU = 593.542 ms, elapsed = 532.821 ms.
Peak resident memory used = 125 Mbytes.

~~~~~~~~~~~~~~~~~~~~~~
Pre-Simulation Summary
~~~~~~~~~~~~~~~~~~~~~~
   -   (APS) Multi-threading. The recommended number of threads is 1, consider adding +mt=1 on command line.
~~~~~~~~~~~~~~~~~~~~~~

**************************************
PZ Analysis `pz': gm1 = (0 -> 122e-06)
**************************************
DC simulation time: CPU = 430 us, elapsed = 430.107 us.

Opening the PSF file ../psf/pz.pz ...

0              0.00% 
DC simulation time: CPU = 86 us, elapsed = 85.1154 us.
                      Poles (Hz)

           Real                       Imaginary                 Qfactor

   1   -1.93335e+05                  0.00000e+00              5.00000e-01 
   2   -2.83435e+06                  0.00000e+00              5.00000e-01 
   3   -2.31856e+08                  0.00000e+00              5.00000e-01 

                      Zeros (Hz)
                      at V(VOUT,0)/V8

           Real                       Imaginary                 Qfactor

   1   -3.25555e-09                  0.00000e+00              5.00000e-01 
   2   -2.56293e+08                  0.00000e+00              5.00000e-01 
   3    1.02076e+10                  0.00000e+00              -5.00000e-01

Constant factor =  5.15811e-04

DC gain =  3.45775e-14


5e-06          4.17% 
DC simulation time: CPU = 71 us, elapsed = 71.0487 us.
                      Poles (Hz)

           Real                       Imaginary                 Qfactor

   1   -1.43569e+06              +/- 5.79285e+06              2.07848e+00 
   2   -2.32012e+08                  0.00000e+00              5.00000e-01 

                      Zeros (Hz)
                      at V(VOUT,0)/V8

           Real                       Imaginary                 Qfactor

   1    5.38608e+07                  0.00000e+00              -5.00000e-01
   2   -2.86989e+08                  0.00000e+00              5.00000e-01 
   3    1.02053e+10                  0.00000e+00              -5.00000e-01

Constant factor =  5.15811e-04

DC gain =  9.84626e+00

...
10e-06         8.33% 
DC simulation time: CPU = 69 us, elapsed = 68.903 us.
                      Poles (Hz)

           Real                       Imaginary                 Qfactor

   1   -1.35775e+06              +/- 8.29446e+06              3.09515e+00 
   2   -2.32168e+08                  0.00000e+00              5.00000e-01 

                      Zeros (Hz)
                      at V(VOUT,0)/V8

           Real                       Imaginary                 Qfactor

   1    9.98209e+07                  0.00000e+00              -5.00000e-01
   2   -3.09775e+08                  0.00000e+00              5.00000e-01 
   3    1.02030e+10                  0.00000e+00              -5.00000e-01

Constant factor =  5.15811e-04

DC gain =  9.92253e+00

......
15e-06        12.50% 
DC simulation time: CPU = 69 us, elapsed = 67.9493 us.
                      Poles (Hz)

           Real                       Imaginary                 Qfactor

   1   -1.28001e+06              +/- 1.01970e+07              4.01444e+00 
   2   -2.32324e+08                  0.00000e+00              5.00000e-01 

                      Zeros (Hz)
                      at V(VOUT,0)/V8

           Real                       Imaginary                 Qfactor

   1    1.41380e+08                  0.00000e+00              -5.00000e-01
   2   -3.28148e+08                  0.00000e+00              5.00000e-01 
   3    1.02007e+10                  0.00000e+00              -5.00000e-01

Constant factor =  5.15811e-04

DC gain =  9.94822e+00

......9..
20e-06        16.67% 
DC simulation time: CPU = 68 us, elapsed = 67.9493 us.
                      Poles (Hz)

           Real                       Imaginary                 Qfactor

   1   -1.20248e+06              +/- 1.17942e+07              4.92950e+00 
   2   -2.32479e+08                  0.00000e+00              5.00000e-01 

                      Zeros (Hz)
                      at V(VOUT,0)/V8

           Real                       Imaginary                 Qfactor

   1    1.80056e+08                  0.00000e+00              -5.00000e-01
   2   -3.43627e+08                  0.00000e+00              5.00000e-01 
   3    1.01983e+10                  0.00000e+00              -5.00000e-01

Constant factor =  5.15811e-04

DC gain =  9.96112e+00

......9.....
25e-06        20.83% 
DC simulation time: CPU = 70 us, elapsed = 68.903 us.
                      Poles (Hz)

           Real                       Imaginary                 Qfactor

   1   -1.12516e+06              +/- 1.31972e+07              5.88586e+00 
   2   -2.32633e+08                  0.00000e+00              5.00000e-01 

                      Zeros (Hz)
                      at V(VOUT,0)/V8

           Real                       Imaginary                 Qfactor

   1    2.16670e+08                  0.00000e+00              -5.00000e-01
   2   -3.57033e+08                  0.00000e+00              5.00000e-01 
   3    1.01960e+10                  0.00000e+00              -5.00000e-01

Constant factor =  5.15811e-04

DC gain =  9.96887e+00

......9......8.
30e-06        25.00% 
DC simulation time: CPU = 69 us, elapsed = 69.1414 us.
                      Poles (Hz)

           Real                       Imaginary                 Qfactor

   1   -1.04804e+06              +/- 1.44627e+07              6.91800e+00 
   2   -2.32788e+08                  0.00000e+00              5.00000e-01 

                      Zeros (Hz)
                      at V(VOUT,0)/V8

           Real                       Imaginary                 Qfactor

   1    2.51722e+08                  0.00000e+00              -5.00000e-01
   2   -3.68865e+08                  0.00000e+00              5.00000e-01 
   3    1.01936e+10                  0.00000e+00              -5.00000e-01

Constant factor =  5.15811e-04

DC gain =  9.97404e+00

......9......8....
35e-06        29.17% 
DC simulation time: CPU = 78 us, elapsed = 77.9629 us.
                      Poles (Hz)

           Real                       Imaginary                 Qfactor

   1   -9.71121e+05              +/- 1.56243e+07              8.05999e+00 
   2   -2.32942e+08                  0.00000e+00              5.00000e-01 

                      Zeros (Hz)
                      at V(VOUT,0)/V8

           Real                       Imaginary                 Qfactor

   1    2.85544e+08                  0.00000e+00              -5.00000e-01
   2   -3.79457e+08                  0.00000e+00              5.00000e-01 
   3    1.01912e+10                  0.00000e+00              -5.00000e-01

Constant factor =  5.15811e-04

DC gain =  9.97774e+00

......9......8......
40e-06        33.33% 
DC simulation time: CPU = 69 us, elapsed = 67.9493 us.
                      Poles (Hz)

           Real                       Imaginary                 Qfactor

   1   -8.94402e+05              +/- 1.67035e+07              9.35119e+00 
   2   -2.33095e+08                  0.00000e+00              5.00000e-01 

                      Zeros (Hz)
                      at V(VOUT,0)/V8

           Real                       Imaginary                 Qfactor

   1    3.18371e+08                  0.00000e+00              -5.00000e-01
   2   -3.89041e+08                  0.00000e+00              5.00000e-01 
   3    1.01889e+10                  0.00000e+00              -5.00000e-01

Constant factor =  5.15811e-04

DC gain =  9.98052e+00

......9......8......7..
45e-06        37.50% 
DC simulation time: CPU = 69 us, elapsed = 69.1414 us.
                      Poles (Hz)

           Real                       Imaginary                 Qfactor

   1   -8.17883e+05              +/- 1.77155e+07              1.08417e+01 
   2   -2.33248e+08                  0.00000e+00              5.00000e-01 

                      Zeros (Hz)
                      at V(VOUT,0)/V8

           Real                       Imaginary                 Qfactor

   1    3.50373e+08                  0.00000e+00              -5.00000e-01
   2   -3.97790e+08                  0.00000e+00              5.00000e-01 
   3    1.01865e+10                  0.00000e+00              -5.00000e-01

Constant factor =  5.15811e-04

DC gain =  9.98268e+00

......9......8......7.....
50e-06        41.67% 
DC simulation time: CPU = 68 us, elapsed = 67.9493 us.
                      Poles (Hz)

           Real                       Imaginary                 Qfactor

   1   -7.41562e+05              +/- 1.86713e+07              1.25991e+01 
   2   -2.33401e+08                  0.00000e+00              5.00000e-01 

                      Zeros (Hz)
                      at V(VOUT,0)/V8

           Real                       Imaginary                 Qfactor

   1    3.81680e+08                  0.00000e+00              -5.00000e-01
   2   -4.05831e+08                  0.00000e+00              5.00000e-01 
   3    1.01841e+10                  0.00000e+00              -5.00000e-01

Constant factor =  5.15811e-04

DC gain =  9.98441e+00

......9......8......7......6.
55e-06        45.83% 
DC simulation time: CPU = 68 us, elapsed = 68.903 us.
                      Poles (Hz)

           Real                       Imaginary                 Qfactor

   1   -6.65437e+05              +/- 1.95789e+07              1.47198e+01 
   2   -2.33553e+08                  0.00000e+00              5.00000e-01 

                      Zeros (Hz)
                      at V(VOUT,0)/V8

           Real                       Imaginary                 Qfactor

   1    4.12392e+08                  0.00000e+00              -5.00000e-01
   2   -4.13266e+08                  0.00000e+00              5.00000e-01 
   3    1.01816e+10                  0.00000e+00              -5.00000e-01

Constant factor =  5.15811e-04

DC gain =  9.98583e+00

......9......8......7......6....
60e-06        50.00% 
DC simulation time: CPU = 68 us, elapsed = 67.9493 us.
                      Poles (Hz)

           Real                       Imaginary                 Qfactor

   1   -5.89508e+05              +/- 2.04450e+07              1.73479e+01 
   2   -2.33705e+08                  0.00000e+00              5.00000e-01 

                      Zeros (Hz)
                      at V(VOUT,0)/V8

           Real                       Imaginary                 Qfactor

   1   -4.20175e+08                  0.00000e+00              5.00000e-01 
   2    4.42590e+08                  0.00000e+00              -5.00000e-01
   3    1.01792e+10                  0.00000e+00              -5.00000e-01

Constant factor =  5.15811e-04

DC gain =  9.98700e+00

......9......8......7......6......5
65e-06        54.17% 
DC simulation time: CPU = 69 us, elapsed = 68.903 us.
                      Poles (Hz)

           Real                       Imaginary                 Qfactor

   1   -5.13772e+05              +/- 2.12745e+07              2.07103e+01 
   2   -2.33856e+08                  0.00000e+00              5.00000e-01 

                      Zeros (Hz)
                      at V(VOUT,0)/V8

           Real                       Imaginary                 Qfactor

   1   -4.26623e+08                  0.00000e+00              5.00000e-01 
   2    4.72339e+08                  0.00000e+00              -5.00000e-01
   3    1.01768e+10                  0.00000e+00              -5.00000e-01

Constant factor =  5.15811e-04

DC gain =  9.98800e+00

......9......8......7......6......5...
70e-06        58.33% 
DC simulation time: CPU = 69 us, elapsed = 67.9493 us.
                      Poles (Hz)

           Real                       Imaginary                 Qfactor

   1   -4.38229e+05              +/- 2.20716e+07              2.51877e+01 
   2   -2.34007e+08                  0.00000e+00              5.00000e-01 

                      Zeros (Hz)
                      at V(VOUT,0)/V8

           Real                       Imaginary                 Qfactor

   1   -4.32664e+08                  0.00000e+00              5.00000e-01 
   2    5.01692e+08                  0.00000e+00              -5.00000e-01
   3    1.01743e+10                  0.00000e+00              -5.00000e-01

Constant factor =  5.15811e-04

DC gain =  9.98886e+00

......9......8......7......6......5......
75e-06        62.50% 
DC simulation time: CPU = 69 us, elapsed = 68.1877 us.
                      Poles (Hz)

           Real                       Imaginary                 Qfactor

   1   -3.62877e+05              +/- 2.28397e+07              3.14743e+01 
   2   -2.34158e+08                  0.00000e+00              5.00000e-01 

                      Zeros (Hz)
                      at V(VOUT,0)/V8

           Real                       Imaginary                 Qfactor

   1   -4.38341e+08                  0.00000e+00              5.00000e-01 
   2    5.30695e+08                  0.00000e+00              -5.00000e-01
   3    1.01719e+10                  0.00000e+00              -5.00000e-01

Constant factor =  5.15811e-04

DC gain =  9.98960e+00

......9......8......7......6......5......4..
80e-06        66.67% 
DC simulation time: CPU = 69 us, elapsed = 67.9493 us.
                      Poles (Hz)

           Real                       Imaginary                 Qfactor

   1   -2.87715e+05              +/- 2.35816e+07              4.09839e+01 
   2   -2.34308e+08                  0.00000e+00              5.00000e-01 

                      Zeros (Hz)
                      at V(VOUT,0)/V8

           Real                       Imaginary                 Qfactor

   1   -4.43692e+08                  0.00000e+00              5.00000e-01 
   2    5.59383e+08                  0.00000e+00              -5.00000e-01
   3    1.01694e+10                  0.00000e+00              -5.00000e-01

Constant factor =  5.15811e-04

DC gain =  9.99025e+00

......9......8......7......6......5......4.....
85e-06        70.83% 
DC simulation time: CPU = 68 us, elapsed = 67.9493 us.
                      Poles (Hz)

           Real                       Imaginary                 Qfactor

   1   -2.12742e+05              +/- 2.42998e+07              5.71132e+01 
   2   -2.34458e+08                  0.00000e+00              5.00000e-01 

                      Zeros (Hz)
                      at V(VOUT,0)/V8

           Real                       Imaginary                 Qfactor

   1   -4.48749e+08                  0.00000e+00              5.00000e-01 
   2    5.87790e+08                  0.00000e+00              -5.00000e-01
   3    1.01669e+10                  0.00000e+00              -5.00000e-01

Constant factor =  5.15811e-04

DC gain =  9.99082e+00

......9......8......7......6......5......4......3.
90e-06        75.00% 
DC simulation time: CPU = 69 us, elapsed = 67.9493 us.
                      Poles (Hz)

           Real                       Imaginary                 Qfactor

   1   -1.37956e+05              +/- 2.49962e+07              9.05964e+01 
   2   -2.34608e+08                  0.00000e+00              5.00000e-01 

                      Zeros (Hz)
                      at V(VOUT,0)/V8

           Real                       Imaginary                 Qfactor

   1   -4.53540e+08                  0.00000e+00              5.00000e-01 
   2    6.15943e+08                  0.00000e+00              -5.00000e-01
   3    1.01644e+10                  0.00000e+00              -5.00000e-01

Constant factor =  5.15811e-04

DC gain =  9.99133e+00

......9......8......7......6......5......4......3....
95e-06        79.17% 
DC simulation time: CPU = 69 us, elapsed = 68.1877 us.
                      Poles (Hz)

           Real                       Imaginary                 Qfactor

   1   -6.33566e+04              +/- 2.56728e+07              2.02606e+02 
   2   -2.34757e+08                  0.00000e+00              5.00000e-01 

                      Zeros (Hz)
                      at V(VOUT,0)/V8

           Real                       Imaginary                 Qfactor

   1   -4.58089e+08                  0.00000e+00              5.00000e-01 
   2    6.43866e+08                  0.00000e+00              -5.00000e-01
   3    1.01619e+10                  0.00000e+00              -5.00000e-01

Constant factor =  5.15811e-04

DC gain =  9.99179e+00

......9......8......7......6......5......4......3......
100e-06       83.33% 
DC simulation time: CPU = 69 us, elapsed = 67.9493 us.
                      Poles (Hz)

           Real                       Imaginary                 Qfactor

   1    1.10578e+04              +/- 2.63309e+07  **RHP       -1.19061e+03
   2   -2.34906e+08                  0.00000e+00              5.00000e-01 

                      Zeros (Hz)
                      at V(VOUT,0)/V8

           Real                       Imaginary                 Qfactor

   1   -4.62415e+08                  0.00000e+00              5.00000e-01 
   2    6.71580e+08                  0.00000e+00              -5.00000e-01
   3    1.01593e+10                  0.00000e+00              -5.00000e-01

Constant factor =  5.15811e-04

DC gain =  9.99220e+00

......9......8......7......6......5......4......3......2..
105e-06       87.50% 
DC simulation time: CPU = 70 us, elapsed = 68.903 us.
                      Poles (Hz)

           Real                       Imaginary                 Qfactor

   1    8.52883e+04              +/- 2.69720e+07  **RHP       -1.58123e+02
   2   -2.35054e+08                  0.00000e+00              5.00000e-01 

                      Zeros (Hz)
                      at V(VOUT,0)/V8

           Real                       Imaginary                 Qfactor

   1   -4.66538e+08                  0.00000e+00              5.00000e-01 
   2    6.99102e+08                  0.00000e+00              -5.00000e-01
   3    1.01568e+10                  0.00000e+00              -5.00000e-01

Constant factor =  5.15811e-04

DC gain =  9.99257e+00

......9......8......7......6......5......4......3......2.....
110e-06       91.67% 
DC simulation time: CPU = 70 us, elapsed = 67.9493 us.
                      Poles (Hz)

           Real                       Imaginary                 Qfactor

   1    1.59336e+05              +/- 2.75972e+07  **RHP       -8.66021e+01
   2   -2.35202e+08                  0.00000e+00              5.00000e-01 

                      Zeros (Hz)
                      at V(VOUT,0)/V8

           Real                       Imaginary                 Qfactor

   1   -4.70473e+08                  0.00000e+00              5.00000e-01 
   2    7.26450e+08                  0.00000e+00              -5.00000e-01
   3    1.01542e+10                  0.00000e+00              -5.00000e-01

Constant factor =  5.15811e-04

DC gain =  9.99291e+00

......9......8......7......6......5......4......3......2......1.
115e-06       95.83% 
DC simulation time: CPU = 68 us, elapsed = 69.1414 us.
                      Poles (Hz)

           Real                       Imaginary                 Qfactor

   1    2.33202e+05              +/- 2.82077e+07  **RHP       -6.04810e+01
   2   -2.35350e+08                  0.00000e+00              5.00000e-01 

                      Zeros (Hz)
                      at V(VOUT,0)/V8

           Real                       Imaginary                 Qfactor

   1   -4.74234e+08                  0.00000e+00              5.00000e-01 
   2    7.53637e+08                  0.00000e+00              -5.00000e-01
   3    1.01517e+10                  0.00000e+00              -5.00000e-01

Constant factor =  5.15811e-04

DC gain =  9.99322e+00

......9......8......7......6......5......4......3......2......1....
122e-06      100.00% 
DC simulation time: CPU = 70 us, elapsed = 68.903 us.
                      Poles (Hz)

           Real                       Imaginary                 Qfactor

   1    3.36313e+05              +/- 2.90392e+07  **RHP       -4.31759e+01
   2   -2.35556e+08                  0.00000e+00              5.00000e-01 

                      Zeros (Hz)
                      at V(VOUT,0)/V8

           Real                       Imaginary                 Qfactor

   1   -4.79233e+08                  0.00000e+00              5.00000e-01 
   2    7.91454e+08                  0.00000e+00              -5.00000e-01
   3    1.01481e+10                  0.00000e+00              -5.00000e-01

Constant factor =  5.15811e-04

DC gain =  9.99360e+00

......9......8......7......6......5......4......3......2......1......0
Accumulated DC solution time =            3.42822 ms.
Intrinsic pz analysis time =              32.0008 ms.
Total time required for pz analysis `pz': CPU = 33.12 ms, elapsed = 35.516 ms, util. = 93.3%.
Time accumulated: CPU = 636.582 ms, elapsed = 578.258 ms.
Peak resident memory used = 128 Mbytes.

modelParameter: writing model parameter values to rawfile.

Opening the PSF file ../psf/modelParameter.info ...
element: writing instance parameter values to rawfile.

Opening the PSF file ../psf/element.info ...
outputParameter: writing output parameter values to rawfile.

Opening the PSF file ../psf/outputParameter.info ...
designParamVals: writing netlist parameters to rawfile.

Opening the PSFASCII file ../psf/designParamVals.info ...
primitives: writing primitives to rawfile.

Opening the PSFASCII file ../psf/primitives.info.primitives ...
subckts: writing subcircuits to rawfile.

Opening the PSFASCII file ../psf/subckts.info.subckts ...
Licensing Information:
Lic Summary:
[00:59:32.374968] Cdslmd servers:3000@lic08.ug.kth.se
[00:59:32.375009] Feature usage summary:
[00:59:32.375011] Virtuoso_Multi_mode_Simulation


Aggregate audit (12:59:32 AM, Sat May 3, 2025):
Time used: CPU = 671 ms, elapsed = 637 ms, util. = 105%.
Time spent in licensing: elapsed = 43 ms, percentage of total = 6.76%.
Peak memory used = 130 Mbytes.
Simulation started at: 12:59:31 AM, Sat May 3, 2025, ended at: 12:59:32 AM, Sat May 3, 2025, with elapsed time (wall clock): 637 ms.
spectre completes with 0 errors, 6 warnings, and 4 notices.


********* LOG ENDS **************
**                             **
