
Spectre (R) Circuit Simulator
Version 24.1.0.288.isr5 64bit -- 3 Apr 2025
Copyright (C) 1989-2025 Cadence Design Systems, Inc. All rights reserved worldwide. Cadence and Spectre are registered trademarks of Cadence Design Systems, Inc. All others are the property of their respective holders.

Includes RSA BSAFE(R) Cryptographic or Security Protocol Software from RSA Security, Inc.

User: saul   Host: edatools   HostID: 11AC0200   PID: 44409
Memory  available: 21.8636 GB  physical: 27.3104 GB
Linux   : Rocky Linux release 8.10 (Green Obsidian)
CPU Type: 11th Gen Intel(R) Core(TM) i7-11700K @ 3.60GHz
All processors running at 3600.0 MHz
        Socket: Processors
        0:       0,  1,  2,  3,  4,  5,  6,  7,  8,  9
                10, 11, 12, 13, 14, 15
        
System load averages (1min, 5min, 15min) : 9.4 %, 7.8 %, 7.6 %
HPC is enabled


Simulating `input.scs' on edatools at 9:43:34 AM, Thur Nov 13, 2025 (process id: 44409).
Current working directory: /home/saul/projects/FIL3601/Sim/LAB3/Shunt/adexl/results/data/Interactive.50/1/rootlocus/netlist
Command line:
    /opt/tools/cadence/installs/SPECTRE241/tools/bin/spectre -64  \
        input.scs +escchars +log ../psf/spectre.out -format psfxl -raw  \
        ../psf +aps +mt +lqtimeout 900 -maxw 5 -maxn 5 -env ade  \
        -ahdllibdir  \
        /home/saul/projects/FIL3601/Sim/LAB3/Shunt/adexl/results/data/Interactive.50/sharedData/Job51/ahdl/input.ahdlSimDB  \
        +logstatus  \
        +adespetkn=0001089D13A302B663E41FB550AF0DF415A679A322D5069144BF588C12F604E07EF416DC01A319B562BB63D36BD12D9845A316CB01A41DBB62D06AF111DF4F9261F679D15D9175FF34980CBD6B9974D3349877CA11EF18A05BF743E42DC141EA0EAD79D12DF874D3349879D118F874D3349810C4B0BBDC905D8D000036AD

Simulation Id: YKp49RVHih2fFNUn
Licensing Information:
[09:43:34.188857] Configured Lic search path (24.01-s002): 3000@lic08.ug.kth.se

Licensing Information:
[09:43:34.226499] Periodic Lic check successful

Loading /opt/tools/cadence/installs/SPECTRE241/tools.lnx86/cmi/lib/64bit/5.0/libinfineon_sh.so ...
Loading /opt/tools/cadence/installs/SPECTRE241/tools.lnx86/cmi/lib/64bit/5.0/libphilips_I_sh.so ...
Loading /opt/tools/cadence/installs/SPECTRE241/tools.lnx86/cmi/lib/64bit/5.0/libphilips_sh.so ...
Loading /opt/tools/cadence/installs/SPECTRE241/tools.lnx86/cmi/lib/64bit/5.0/libsparam_sh.so ...
Loading /opt/tools/cadence/installs/SPECTRE241/tools.lnx86/cmi/lib/64bit/5.0/libstmodels_sh.so ...
Reading file:  /home/saul/projects/FIL3601/Sim/LAB3/Shunt/adexl/results/data/Interactive.50/1/rootlocus/netlist/input.scs
Reading file:  /opt/tools/cadence/installs/SPECTRE241/tools.lnx86/spectre/etc/configs/spectre.cfg
Reading file:  /opt/pdk/xfab/XKIT/xh018/cadence/v10_0/spectre/v10_0_2/lpmos/config.scs
Reading file:  /opt/pdk/xfab/XKIT/xh018/cadence/v10_0/spectre/v10_0_2/lpmos/param.scs
Reading file:  /opt/pdk/xfab/XKIT/xh018/cadence/v10_0/spectre/v10_0_2/lpmos/bip.scs
Reading file:  /opt/pdk/xfab/XKIT/xh018/cadence/v10_0/spectre/v10_0_2/lpmos/models/bip/tm_bip.scs
Reading file:  /opt/pdk/xfab/XKIT/xh018/cadence/v10_0/spectre/v10_0_2/lpmos/models/bip/qpva.scs
Reading file:  /opt/pdk/xfab/XKIT/xh018/cadence/v10_0/spectre/v10_0_2/lpmos/models/bip/qpvb.scs
Reading file:  /opt/pdk/xfab/XKIT/xh018/cadence/v10_0/spectre/v10_0_2/lpmos/models/bip/qpvc.scs
Reading file:  /opt/pdk/xfab/XKIT/xh018/cadence/v10_0/spectre/v10_0_2/lpmos/models/bip/qpva3.scs
Reading file:  /opt/pdk/xfab/XKIT/xh018/cadence/v10_0/spectre/v10_0_2/lpmos/models/bip/qpvb3.scs
Reading file:  /opt/pdk/xfab/XKIT/xh018/cadence/v10_0/spectre/v10_0_2/lpmos/models/bip/qpvc3.scs
Reading file:  /opt/pdk/xfab/XKIT/xh018/cadence/v10_0/spectre/v10_0_2/lpmos/models/bip/qnva.scs
Reading file:  /opt/pdk/xfab/XKIT/xh018/cadence/v10_0/spectre/v10_0_2/lpmos/models/bip/qnvb.scs
Reading file:  /opt/pdk/xfab/XKIT/xh018/cadence/v10_0/spectre/v10_0_2/lpmos/models/bip/qnvba.scs
Reading file:  /opt/pdk/xfab/XKIT/xh018/cadence/v10_0/spectre/v10_0_2/lpmos/models/bip/qnvbb.scs
Reading file:  /opt/pdk/xfab/XKIT/xh018/cadence/v10_0/spectre/v10_0_2/lpmos/models/bip/qnvc.scs
Reading file:  /opt/pdk/xfab/XKIT/xh018/cadence/v10_0/spectre/v10_0_2/lpmos/models/bip/qnvca.scs
Reading file:  /opt/pdk/xfab/XKIT/xh018/cadence/v10_0/spectre/v10_0_2/lpmos/models/bip/qnvcb.scs
Reading file:  /opt/pdk/xfab/XKIT/xh018/cadence/v10_0/spectre/v10_0_2/lpmos/models/bip/qpvhscr.scs
Reading file:  /opt/pdk/xfab/XKIT/xh018/cadence/v10_0/spectre/v10_0_2/lpmos/models/bip/qpvascr.scs
Reading file:  /opt/pdk/xfab/XKIT/xh018/cadence/v10_0/spectre/v10_0_2/lpmos/models/bip/qpvhbscr.scs
Reading file:  /opt/pdk/xfab/XKIT/xh018/cadence/v10_0/spectre/v10_0_2/lpmos/models/bip/qpv_pa.scs
Reading file:  /opt/pdk/xfab/XKIT/xh018/cadence/v10_0/spectre/v10_0_2/lpmos/models/bip/qpv_pb.scs
Reading file:  /opt/pdk/xfab/XKIT/xh018/cadence/v10_0/spectre/v10_0_2/lpmos/models/bip/qpv_pc.scs
Reading file:  /opt/pdk/xfab/XKIT/xh018/cadence/v10_0/spectre/v10_0_2/lpmos/models/bip/qpv_pd.scs
Reading file:  /opt/pdk/xfab/XKIT/xh018/cadence/v10_0/spectre/v10_0_2/lpmos/models/bip/qpv_pe.scs
Reading file:  /opt/pdk/xfab/XKIT/xh018/cadence/v10_0/spectre/v10_0_2/lpmos/models/bip/qpv_pf.scs
Reading file:  /opt/pdk/xfab/XKIT/xh018/cadence/v10_0/spectre/v10_0_2/lpmos/models/bip/qpl_pa.scs
Reading file:  /opt/pdk/xfab/XKIT/xh018/cadence/v10_0/spectre/v10_0_2/lpmos/models/bip/qpl_pb.scs
Reading file:  /opt/pdk/xfab/XKIT/xh018/cadence/v10_0/spectre/v10_0_2/lpmos/models/bip/qpl_pc.scs
Reading file:  /opt/pdk/xfab/XKIT/xh018/cadence/v10_0/spectre/v10_0_2/lpmos/models/bip/qpl_pd.scs
Reading file:  /opt/pdk/xfab/XKIT/xh018/cadence/v10_0/spectre/v10_0_2/lpmos/models/bip/qpl_pe.scs
Reading file:  /opt/pdk/xfab/XKIT/xh018/cadence/v10_0/spectre/v10_0_2/lpmos/models/bip/qpl_pf.scs
Reading file:  /opt/pdk/xfab/XKIT/xh018/cadence/v10_0/spectre/v10_0_2/lpmos/models/bip/qnl_pa.scs
Reading file:  /opt/pdk/xfab/XKIT/xh018/cadence/v10_0/spectre/v10_0_2/lpmos/models/bip/qnl_pb.scs
Reading file:  /opt/pdk/xfab/XKIT/xh018/cadence/v10_0/spectre/v10_0_2/lpmos/models/bip/qnl_pc.scs
Reading file:  /opt/pdk/xfab/XKIT/xh018/cadence/v10_0/spectre/v10_0_2/lpmos/models/bip/qnl_pd.scs
Reading file:  /opt/pdk/xfab/XKIT/xh018/cadence/v10_0/spectre/v10_0_2/lpmos/models/bip/qnl_pe.scs
Reading file:  /opt/pdk/xfab/XKIT/xh018/cadence/v10_0/spectre/v10_0_2/lpmos/models/bip/qnl_pf.scs
Reading file:  /opt/pdk/xfab/XKIT/xh018/cadence/v10_0/spectre/v10_0_2/lpmos/cap.scs
Reading file:  /opt/pdk/xfab/XKIT/xh018/cadence/v10_0/spectre/v10_0_2/lpmos/models/cap/tm_cap.scs
Reading file:  /opt/pdk/xfab/XKIT/xh018/cadence/v10_0/spectre/v10_0_2/lpmos/models/cap/csandwt3.scs
Reading file:  /opt/pdk/xfab/XKIT/xh018/cadence/v10_0/spectre/v10_0_2/lpmos/models/cap/csandwt4.scs
Reading file:  /opt/pdk/xfab/XKIT/xh018/cadence/v10_0/spectre/v10_0_2/lpmos/models/cap/csandwt5.scs
Reading file:  /opt/pdk/xfab/XKIT/xh018/cadence/v10_0/spectre/v10_0_2/lpmos/models/cap/csf2p.scs
Reading file:  /opt/pdk/xfab/XKIT/xh018/cadence/v10_0/spectre/v10_0_2/lpmos/models/cap/csf3p.scs
Reading file:  /opt/pdk/xfab/XKIT/xh018/cadence/v10_0/spectre/v10_0_2/lpmos/models/cap/csf3.scs
Reading file:  /opt/pdk/xfab/XKIT/xh018/cadence/v10_0/spectre/v10_0_2/lpmos/models/cap/csf4.scs
Reading file:  /opt/pdk/xfab/XKIT/xh018/cadence/v10_0/spectre/v10_0_2/lpmos/models/cap/csf5.scs
Reading file:  /opt/pdk/xfab/XKIT/xh018/cadence/v10_0/spectre/v10_0_2/lpmos/models/cap/csft4.scs
Reading file:  /opt/pdk/xfab/XKIT/xh018/cadence/v10_0/spectre/v10_0_2/lpmos/models/cap/csft5.scs
Reading file:  /opt/pdk/xfab/XKIT/xh018/cadence/v10_0/spectre/v10_0_2/lpmos/models/cap/csft6.scs
Reading file:  /opt/pdk/xfab/XKIT/xh018/cadence/v10_0/spectre/v10_0_2/lpmos/models/cap/csf3a.scs
Reading file:  /opt/pdk/xfab/XKIT/xh018/cadence/v10_0/spectre/v10_0_2/lpmos/models/cap/csf4a.scs
Reading file:  /opt/pdk/xfab/XKIT/xh018/cadence/v10_0/spectre/v10_0_2/lpmos/models/cap/csf5a.scs
Reading file:  /opt/pdk/xfab/XKIT/xh018/cadence/v10_0/spectre/v10_0_2/lpmos/models/cap/csft4a.scs
Reading file:  /opt/pdk/xfab/XKIT/xh018/cadence/v10_0/spectre/v10_0_2/lpmos/models/cap/csft5a.scs
Reading file:  /opt/pdk/xfab/XKIT/xh018/cadence/v10_0/spectre/v10_0_2/lpmos/models/cap/csft6a.scs
Reading file:  /opt/pdk/xfab/XKIT/xh018/cadence/v10_0/spectre/v10_0_2/lpmos/models/cap/cif3a.scs
Reading file:  /opt/pdk/xfab/XKIT/xh018/cadence/v10_0/spectre/v10_0_2/lpmos/models/cap/cif4a.scs
Reading file:  /opt/pdk/xfab/XKIT/xh018/cadence/v10_0/spectre/v10_0_2/lpmos/models/cap/cif5a.scs
Reading file:  /opt/pdk/xfab/XKIT/xh018/cadence/v10_0/spectre/v10_0_2/lpmos/models/cap/cift4a.scs
Reading file:  /opt/pdk/xfab/XKIT/xh018/cadence/v10_0/spectre/v10_0_2/lpmos/models/cap/cift5a.scs
Reading file:  /opt/pdk/xfab/XKIT/xh018/cadence/v10_0/spectre/v10_0_2/lpmos/models/cap/cift6a.scs
Reading file:  /opt/pdk/xfab/XKIT/xh018/cadence/v10_0/spectre/v10_0_2/lpmos/models/cap/cmm3.scs
Reading file:  /opt/pdk/xfab/XKIT/xh018/cadence/v10_0/spectre/v10_0_2/lpmos/models/cap/cmm4t.scs
Reading file:  /opt/pdk/xfab/XKIT/xh018/cadence/v10_0/spectre/v10_0_2/lpmos/models/cap/cmm4.scs
Reading file:  /opt/pdk/xfab/XKIT/xh018/cadence/v10_0/spectre/v10_0_2/lpmos/models/cap/cmm5t.scs
Reading file:  /opt/pdk/xfab/XKIT/xh018/cadence/v10_0/spectre/v10_0_2/lpmos/models/cap/cmm6t.scs
Reading file:  /opt/pdk/xfab/XKIT/xh018/cadence/v10_0/spectre/v10_0_2/lpmos/models/cap/cdmm4.scs
Reading file:  /opt/pdk/xfab/XKIT/xh018/cadence/v10_0/spectre/v10_0_2/lpmos/models/cap/cdmm4t.scs
Reading file:  /opt/pdk/xfab/XKIT/xh018/cadence/v10_0/spectre/v10_0_2/lpmos/models/cap/ctmm5.scs
Reading file:  /opt/pdk/xfab/XKIT/xh018/cadence/v10_0/spectre/v10_0_2/lpmos/models/cap/ctmm5t.scs
Reading file:  /opt/pdk/xfab/XKIT/xh018/cadence/v10_0/spectre/v10_0_2/lpmos/models/cap/cmmh3.scs
Reading file:  /opt/pdk/xfab/XKIT/xh018/cadence/v10_0/spectre/v10_0_2/lpmos/models/cap/cmmh4t.scs
Reading file:  /opt/pdk/xfab/XKIT/xh018/cadence/v10_0/spectre/v10_0_2/lpmos/models/cap/cmmh4.scs
Reading file:  /opt/pdk/xfab/XKIT/xh018/cadence/v10_0/spectre/v10_0_2/lpmos/models/cap/cmmh5t.scs
Reading file:  /opt/pdk/xfab/XKIT/xh018/cadence/v10_0/spectre/v10_0_2/lpmos/models/cap/cmmh6t.scs
Reading file:  /opt/pdk/xfab/XKIT/xh018/cadence/v10_0/spectre/v10_0_2/lpmos/models/cap/cdmmh4.scs
Reading file:  /opt/pdk/xfab/XKIT/xh018/cadence/v10_0/spectre/v10_0_2/lpmos/models/cap/cdmmh4t.scs
Reading file:  /opt/pdk/xfab/XKIT/xh018/cadence/v10_0/spectre/v10_0_2/lpmos/models/cap/ctmmh5.scs
Reading file:  /opt/pdk/xfab/XKIT/xh018/cadence/v10_0/spectre/v10_0_2/lpmos/models/cap/ctmmh5t.scs
Reading file:  /opt/pdk/xfab/XKIT/xh018/cadence/v10_0/spectre/v10_0_2/lpmos/models/cap/mosvc.scs
Reading file:  /opt/pdk/xfab/XKIT/xh018/cadence/v10_0/spectre/v10_0_2/lpmos/models/cap/mosvc_pmos.scs
Reading file:  /opt/pdk/xfab/XKIT/xh018/cadence/v10_0/spectre/v10_0_2/lpmos/models/cap/mosvci.scs
Reading file:  /opt/pdk/xfab/XKIT/xh018/cadence/v10_0/spectre/v10_0_2/lpmos/models/cap/mosvci_nmos.scs
Reading file:  /opt/pdk/xfab/XKIT/xh018/cadence/v10_0/spectre/v10_0_2/lpmos/models/cap/mosvci_m.scs
Reading file:  /opt/pdk/xfab/XKIT/xh018/cadence/v10_0/spectre/v10_0_2/lpmos/models/cap/mosvc3.scs
Reading file:  /opt/pdk/xfab/XKIT/xh018/cadence/v10_0/spectre/v10_0_2/lpmos/models/cap/mosvc3_pmos.scs
Reading file:  /opt/pdk/xfab/XKIT/xh018/cadence/v10_0/spectre/v10_0_2/lpmos/models/cap/mosvc3i.scs
Reading file:  /opt/pdk/xfab/XKIT/xh018/cadence/v10_0/spectre/v10_0_2/lpmos/models/cap/mosvc3i_nmos.scs
Reading file:  /opt/pdk/xfab/XKIT/xh018/cadence/v10_0/spectre/v10_0_2/lpmos/models/cap/mosvc3i_m.scs
Reading file:  /opt/pdk/xfab/XKIT/xh018/cadence/v10_0/spectre/v10_0_2/lpmos/models/cap/cpod.scs
Reading file:  /opt/pdk/xfab/XKIT/xh018/cadence/v10_0/spectre/v10_0_2/lpmos/models/cap/cpod_i.scs
Reading file:  /opt/pdk/xfab/XKIT/xh018/cadence/v10_0/spectre/v10_0_2/lpmos/models/cap/cpodhv.scs
Reading file:  /opt/pdk/xfab/XKIT/xh018/cadence/v10_0/spectre/v10_0_2/lpmos/models/cap/cpodhv_i.scs
Reading file:  /opt/pdk/xfab/XKIT/xh018/cadence/v10_0/spectre/v10_0_2/lpmos/models/cap/cp1sub.scs
Reading file:  /opt/pdk/xfab/XKIT/xh018/cadence/v10_0/spectre/v10_0_2/lpmos/models/cap/cp1suba.scs
Reading file:  /opt/pdk/xfab/XKIT/xh018/cadence/v10_0/spectre/v10_0_2/lpmos/models/cap/cp1subp.scs
Reading file:  /opt/pdk/xfab/XKIT/xh018/cadence/v10_0/spectre/v10_0_2/lpmos/models/cap/tag_25v.scs
Reading file:  /opt/pdk/xfab/XKIT/xh018/cadence/v10_0/spectre/v10_0_2/lpmos/models/cap/tag_60v.scs
Reading file:  /opt/pdk/xfab/XKIT/xh018/cadence/v10_0/spectre/v10_0_2/lpmos/dio.scs
Reading file:  /opt/pdk/xfab/XKIT/xh018/cadence/v10_0/spectre/v10_0_2/lpmos/models/dio/tm_dio.scs
Reading file:  /opt/pdk/xfab/XKIT/xh018/cadence/v10_0/spectre/v10_0_2/lpmos/models/dio/dn.scs
Reading file:  /opt/pdk/xfab/XKIT/xh018/cadence/v10_0/spectre/v10_0_2/lpmos/models/dio/dp.scs
Reading file:  /opt/pdk/xfab/XKIT/xh018/cadence/v10_0/spectre/v10_0_2/lpmos/models/dio/dnw.scs
Reading file:  /opt/pdk/xfab/XKIT/xh018/cadence/v10_0/spectre/v10_0_2/lpmos/models/dio/dn3.scs
Reading file:  /opt/pdk/xfab/XKIT/xh018/cadence/v10_0/spectre/v10_0_2/lpmos/models/dio/dnn3.scs
Reading file:  /opt/pdk/xfab/XKIT/xh018/cadence/v10_0/spectre/v10_0_2/lpmos/models/dio/dp3.scs
Reading file:  /opt/pdk/xfab/XKIT/xh018/cadence/v10_0/spectre/v10_0_2/lpmos/models/dio/dnw3.scs
Reading file:  /opt/pdk/xfab/XKIT/xh018/cadence/v10_0/spectre/v10_0_2/lpmos/models/dio/ddnwmv.scs
Reading file:  /opt/pdk/xfab/XKIT/xh018/cadence/v10_0/spectre/v10_0_2/lpmos/models/dio/dpdnwmv.scs
Reading file:  /opt/pdk/xfab/XKIT/xh018/cadence/v10_0/spectre/v10_0_2/lpmos/models/dio/dipdnwmv.scs
Reading file:  /opt/pdk/xfab/XKIT/xh018/cadence/v10_0/spectre/v10_0_2/lpmos/models/dio/ddnw.scs
Reading file:  /opt/pdk/xfab/XKIT/xh018/cadence/v10_0/spectre/v10_0_2/lpmos/models/dio/ddnwa.scs
Reading file:  /opt/pdk/xfab/XKIT/xh018/cadence/v10_0/spectre/v10_0_2/lpmos/models/dio/dpdnw.scs
Reading file:  /opt/pdk/xfab/XKIT/xh018/cadence/v10_0/spectre/v10_0_2/lpmos/models/dio/dipdnw.scs
Reading file:  /opt/pdk/xfab/XKIT/xh018/cadence/v10_0/spectre/v10_0_2/lpmos/models/dio/dnhpw.scs
Reading file:  /opt/pdk/xfab/XKIT/xh018/cadence/v10_0/spectre/v10_0_2/lpmos/models/dio/dnhpwa.scs
Reading file:  /opt/pdk/xfab/XKIT/xh018/cadence/v10_0/spectre/v10_0_2/lpmos/models/dio/dphnw.scs
Reading file:  /opt/pdk/xfab/XKIT/xh018/cadence/v10_0/spectre/v10_0_2/lpmos/models/dio/dphnwa.scs
Reading file:  /opt/pdk/xfab/XKIT/xh018/cadence/v10_0/spectre/v10_0_2/lpmos/models/dio/dhpw.scs
Reading file:  /opt/pdk/xfab/XKIT/xh018/cadence/v10_0/spectre/v10_0_2/lpmos/models/dio/dhnw.scs
Reading file:  /opt/pdk/xfab/XKIT/xh018/cadence/v10_0/spectre/v10_0_2/lpmos/models/dio/dndf.scs
Reading file:  /opt/pdk/xfab/XKIT/xh018/cadence/v10_0/spectre/v10_0_2/lpmos/models/dio/dpdwhn.scs
Reading file:  /opt/pdk/xfab/XKIT/xh018/cadence/v10_0/spectre/v10_0_2/lpmos/models/dio/dwhn.scs
Reading file:  /opt/pdk/xfab/XKIT/xh018/cadence/v10_0/spectre/v10_0_2/lpmos/models/dio/dpwhn.scs
Reading file:  /opt/pdk/xfab/XKIT/xh018/cadence/v10_0/spectre/v10_0_2/lpmos/models/dio/dpndf.scs
Reading file:  /opt/pdk/xfab/XKIT/xh018/cadence/v10_0/spectre/v10_0_2/lpmos/models/dio/dpdddnw.scs
Reading file:  /opt/pdk/xfab/XKIT/xh018/cadence/v10_0/spectre/v10_0_2/lpmos/models/dio/ddpldnw.scs
Reading file:  /opt/pdk/xfab/XKIT/xh018/cadence/v10_0/spectre/v10_0_2/lpmos/models/dio/dn3dpl.scs
Reading file:  /opt/pdk/xfab/XKIT/xh018/cadence/v10_0/spectre/v10_0_2/lpmos/models/dio/dbn.scs
Reading file:  /opt/pdk/xfab/XKIT/xh018/cadence/v10_0/spectre/v10_0_2/lpmos/models/dio/dpol.scs
Reading file:  /opt/pdk/xfab/XKIT/xh018/cadence/v10_0/spectre/v10_0_2/lpmos/models/dio/dnpdd_scr.scs
Reading file:  /opt/pdk/xfab/XKIT/xh018/cadence/v10_0/spectre/v10_0_2/lpmos/models/dio/dpdd_scr.scs
Reading file:  /opt/pdk/xfab/XKIT/xh018/cadence/v10_0/spectre/v10_0_2/lpmos/models/dio/dsb.scs
Reading file:  /opt/pdk/xfab/XKIT/xh018/cadence/v10_0/spectre/v10_0_2/lpmos/models/dio/dsba.scs
Reading file:  /opt/pdk/xfab/XKIT/xh018/cadence/v10_0/spectre/v10_0_2/lpmos/models/dio/dsba_qp1.scs
Reading file:  /opt/pdk/xfab/XKIT/xh018/cadence/v10_0/spectre/v10_0_2/lpmos/models/dio/dnp20.scs
Reading file:  /opt/pdk/xfab/XKIT/xh018/cadence/v10_0/spectre/v10_0_2/lpmos/models/dio/dpp20.scs
Reading file:  /opt/pdk/xfab/XKIT/xh018/cadence/v10_0/spectre/v10_0_2/lpmos/models/dio/dn3sci.scs
Reading file:  /opt/pdk/xfab/XKIT/xh018/cadence/v10_0/spectre/v10_0_2/lpmos/models/dio/dscidnwmv.scs
Reading file:  /opt/pdk/xfab/XKIT/xh018/cadence/v10_0/spectre/v10_0_2/lpmos/mos.scs
Reading file:  /opt/pdk/xfab/XKIT/xh018/cadence/v10_0/spectre/v10_0_2/lpmos/models/mos/tm_mos.scs
Reading file:  /opt/pdk/xfab/XKIT/xh018/cadence/v10_0/spectre/v10_0_2/lpmos/models/mos/ne.scs
Reading file:  /opt/pdk/xfab/XKIT/xh018/cadence/v10_0/spectre/v10_0_2/lpmos/models/mos/nei.scs
Reading file:  /opt/pdk/xfab/XKIT/xh018/cadence/v10_0/spectre/v10_0_2/lpmos/models/mos/nei_6.scs
Reading file:  /opt/pdk/xfab/XKIT/xh018/cadence/v10_0/spectre/v10_0_2/lpmos/models/mos/nei_m_6.scs
Reading file:  /opt/pdk/xfab/XKIT/xh018/cadence/v10_0/spectre/v10_0_2/lpmos/models/mos/nei_a_6.scs
Reading file:  /opt/pdk/xfab/XKIT/xh018/cadence/v10_0/spectre/v10_0_2/lpmos/models/mos/pe.scs
Reading file:  /opt/pdk/xfab/XKIT/xh018/cadence/v10_0/spectre/v10_0_2/lpmos/models/mos/pe_5.scs
Reading file:  /opt/pdk/xfab/XKIT/xh018/cadence/v10_0/spectre/v10_0_2/lpmos/models/mos/pei.scs
Reading file:  /opt/pdk/xfab/XKIT/xh018/cadence/v10_0/spectre/v10_0_2/lpmos/models/mos/pei_5.scs
Reading file:  /opt/pdk/xfab/XKIT/xh018/cadence/v10_0/spectre/v10_0_2/lpmos/models/mos/pei_m_5.scs
Reading file:  /opt/pdk/xfab/XKIT/xh018/cadence/v10_0/spectre/v10_0_2/lpmos/models/mos/pei_a_5.scs
Reading file:  /opt/pdk/xfab/XKIT/xh018/cadence/v10_0/spectre/v10_0_2/lpmos/models/mos/nel.scs
Reading file:  /opt/pdk/xfab/XKIT/xh018/cadence/v10_0/spectre/v10_0_2/lpmos/models/mos/neli.scs
Reading file:  /opt/pdk/xfab/XKIT/xh018/cadence/v10_0/spectre/v10_0_2/lpmos/models/mos/neli_6.scs
Reading file:  /opt/pdk/xfab/XKIT/xh018/cadence/v10_0/spectre/v10_0_2/lpmos/models/mos/neli_m_6.scs
Reading file:  /opt/pdk/xfab/XKIT/xh018/cadence/v10_0/spectre/v10_0_2/lpmos/models/mos/pel.scs
Reading file:  /opt/pdk/xfab/XKIT/xh018/cadence/v10_0/spectre/v10_0_2/lpmos/models/mos/pel_5.scs
Reading file:  /opt/pdk/xfab/XKIT/xh018/cadence/v10_0/spectre/v10_0_2/lpmos/models/mos/peli.scs
Reading file:  /opt/pdk/xfab/XKIT/xh018/cadence/v10_0/spectre/v10_0_2/lpmos/models/mos/peli_5.scs
Reading file:  /opt/pdk/xfab/XKIT/xh018/cadence/v10_0/spectre/v10_0_2/lpmos/models/mos/peli_m_5.scs
Reading file:  /opt/pdk/xfab/XKIT/xh018/cadence/v10_0/spectre/v10_0_2/lpmos/models/mos/nn3.scs
Reading file:  /opt/pdk/xfab/XKIT/xh018/cadence/v10_0/spectre/v10_0_2/lpmos/models/mos/ne3.scs
Reading file:  /opt/pdk/xfab/XKIT/xh018/cadence/v10_0/spectre/v10_0_2/lpmos/models/mos/ne3i.scs
Reading file:  /opt/pdk/xfab/XKIT/xh018/cadence/v10_0/spectre/v10_0_2/lpmos/models/mos/ne3i_6.scs
Reading file:  /opt/pdk/xfab/XKIT/xh018/cadence/v10_0/spectre/v10_0_2/lpmos/models/mos/ne3i_m_6.scs
Reading file:  /opt/pdk/xfab/XKIT/xh018/cadence/v10_0/spectre/v10_0_2/lpmos/models/mos/ne3i_a_6.scs
Reading file:  /opt/pdk/xfab/XKIT/xh018/cadence/v10_0/spectre/v10_0_2/lpmos/models/mos/pe3.scs
Reading file:  /opt/pdk/xfab/XKIT/xh018/cadence/v10_0/spectre/v10_0_2/lpmos/models/mos/pe3_5.scs
Reading file:  /opt/pdk/xfab/XKIT/xh018/cadence/v10_0/spectre/v10_0_2/lpmos/models/mos/pe3i.scs
Reading file:  /opt/pdk/xfab/XKIT/xh018/cadence/v10_0/spectre/v10_0_2/lpmos/models/mos/pe3i_5.scs
Reading file:  /opt/pdk/xfab/XKIT/xh018/cadence/v10_0/spectre/v10_0_2/lpmos/models/mos/pe3i_m_5.scs
Reading file:  /opt/pdk/xfab/XKIT/xh018/cadence/v10_0/spectre/v10_0_2/lpmos/models/mos/pe3i_a_5.scs
Reading file:  /opt/pdk/xfab/XKIT/xh018/cadence/v10_0/spectre/v10_0_2/lpmos/models/mos/pe3ln.scs
Reading file:  /opt/pdk/xfab/XKIT/xh018/cadence/v10_0/spectre/v10_0_2/lpmos/models/mos/pe3ln_5.scs
Reading file:  /opt/pdk/xfab/XKIT/xh018/cadence/v10_0/spectre/v10_0_2/lpmos/models/mos/pe3lni.scs
Reading file:  /opt/pdk/xfab/XKIT/xh018/cadence/v10_0/spectre/v10_0_2/lpmos/models/mos/pe3lni_5.scs
Reading file:  /opt/pdk/xfab/XKIT/xh018/cadence/v10_0/spectre/v10_0_2/lpmos/models/mos/pe3lni_m_5.scs
Reading file:  /opt/pdk/xfab/XKIT/xh018/cadence/v10_0/spectre/v10_0_2/lpmos/models/mos/nd3.scs
Reading file:  /opt/pdk/xfab/XKIT/xh018/cadence/v10_0/spectre/v10_0_2/lpmos/models/mos/nd3_mos1.scs
Reading file:  /opt/pdk/xfab/XKIT/xh018/cadence/v10_0/spectre/v10_0_2/lpmos/models/mos/nd3_mos2.scs
Reading file:  /opt/pdk/xfab/XKIT/xh018/cadence/v10_0/spectre/v10_0_2/lpmos/models/mos/nd3i.scs
Reading file:  /opt/pdk/xfab/XKIT/xh018/cadence/v10_0/spectre/v10_0_2/lpmos/models/mos/nd3i_mos1.scs
Reading file:  /opt/pdk/xfab/XKIT/xh018/cadence/v10_0/spectre/v10_0_2/lpmos/models/mos/nd3i_mos2.scs
Reading file:  /opt/pdk/xfab/XKIT/xh018/cadence/v10_0/spectre/v10_0_2/lpmos/models/mos/nd3i_6.scs
Reading file:  /opt/pdk/xfab/XKIT/xh018/cadence/v10_0/spectre/v10_0_2/lpmos/models/mos/nd3i_m_6.scs
Reading file:  /opt/pdk/xfab/XKIT/xh018/cadence/v10_0/spectre/v10_0_2/lpmos/models/mos/nelna.scs
Reading file:  /opt/pdk/xfab/XKIT/xh018/cadence/v10_0/spectre/v10_0_2/lpmos/models/mos/nelnai.scs
Reading file:  /opt/pdk/xfab/XKIT/xh018/cadence/v10_0/spectre/v10_0_2/lpmos/models/mos/nelnai_6.scs
Reading file:  /opt/pdk/xfab/XKIT/xh018/cadence/v10_0/spectre/v10_0_2/lpmos/models/mos/nelnai_m_6.scs
Reading file:  /opt/pdk/xfab/XKIT/xh018/cadence/v10_0/spectre/v10_0_2/lpmos/models/mos/ne3lna.scs
Reading file:  /opt/pdk/xfab/XKIT/xh018/cadence/v10_0/spectre/v10_0_2/lpmos/models/mos/ne3lnai.scs
Reading file:  /opt/pdk/xfab/XKIT/xh018/cadence/v10_0/spectre/v10_0_2/lpmos/models/mos/ne3lnai_6.scs
Reading file:  /opt/pdk/xfab/XKIT/xh018/cadence/v10_0/spectre/v10_0_2/lpmos/models/mos/ne3lnai_m_6.scs
Reading file:  /opt/pdk/xfab/XKIT/xh018/cadence/v10_0/spectre/v10_0_2/lpmos/models/mos/pe3lna.scs
Reading file:  /opt/pdk/xfab/XKIT/xh018/cadence/v10_0/spectre/v10_0_2/lpmos/models/mos/pe3lna_5.scs
Reading file:  /opt/pdk/xfab/XKIT/xh018/cadence/v10_0/spectre/v10_0_2/lpmos/models/mos/pe3lnai.scs
Reading file:  /opt/pdk/xfab/XKIT/xh018/cadence/v10_0/spectre/v10_0_2/lpmos/models/mos/pe3lnai_5.scs
Reading file:  /opt/pdk/xfab/XKIT/xh018/cadence/v10_0/spectre/v10_0_2/lpmos/models/mos/pe3lnai_m_5.scs
Reading file:  /opt/pdk/xfab/XKIT/xh018/cadence/v10_0/spectre/v10_0_2/lpmos/models/mos/nmma.scs
Reading file:  /opt/pdk/xfab/XKIT/xh018/cadence/v10_0/spectre/v10_0_2/lpmos/models/mos/jf_nmma.scs
Reading file:  /opt/pdk/xfab/XKIT/xh018/cadence/v10_0/spectre/v10_0_2/lpmos/models/mos/nmma_bjt.scs
Reading file:  /opt/pdk/xfab/XKIT/xh018/cadence/v10_0/spectre/v10_0_2/lpmos/models/mos/pmma.scs
Reading file:  /opt/pdk/xfab/XKIT/xh018/cadence/v10_0/spectre/v10_0_2/lpmos/models/mos/jf_pmma.scs
Reading file:  /opt/pdk/xfab/XKIT/xh018/cadence/v10_0/spectre/v10_0_2/lpmos/models/mos/pmma_bjt.scs
Reading file:  /opt/pdk/xfab/XKIT/xh018/cadence/v10_0/spectre/v10_0_2/lpmos/models/mos/nedi.scs
Reading file:  /opt/pdk/xfab/XKIT/xh018/cadence/v10_0/spectre/v10_0_2/lpmos/models/mos/nedi_bjt.scs
Reading file:  /opt/pdk/xfab/XKIT/xh018/cadence/v10_0/spectre/v10_0_2/lpmos/models/mos/nedia.scs
Reading file:  /opt/pdk/xfab/XKIT/xh018/cadence/v10_0/spectre/v10_0_2/lpmos/models/mos/nedia_bjt.scs
Reading file:  /opt/pdk/xfab/XKIT/xh018/cadence/v10_0/spectre/v10_0_2/lpmos/models/mos/ped2.scs
Reading file:  /opt/pdk/xfab/XKIT/xh018/cadence/v10_0/spectre/v10_0_2/lpmos/models/mos/ped2_bjt.scs
Reading file:  /opt/pdk/xfab/XKIT/xh018/cadence/v10_0/spectre/v10_0_2/lpmos/models/mos/ped.scs
Reading file:  /opt/pdk/xfab/XKIT/xh018/cadence/v10_0/spectre/v10_0_2/lpmos/models/mos/ped_bjt.scs
Reading file:  /opt/pdk/xfab/XKIT/xh018/cadence/v10_0/spectre/v10_0_2/lpmos/models/mos/nhv.scs
Reading file:  /opt/pdk/xfab/XKIT/xh018/cadence/v10_0/spectre/v10_0_2/lpmos/models/mos/nhv_mos2.scs
Reading file:  /opt/pdk/xfab/XKIT/xh018/cadence/v10_0/spectre/v10_0_2/lpmos/models/mos/nhv_bjt.scs
Reading file:  /opt/pdk/xfab/XKIT/xh018/cadence/v10_0/spectre/v10_0_2/lpmos/models/mos/nhhv.scs
Reading file:  /opt/pdk/xfab/XKIT/xh018/cadence/v10_0/spectre/v10_0_2/lpmos/models/mos/nhhv_mos2.scs
Reading file:  /opt/pdk/xfab/XKIT/xh018/cadence/v10_0/spectre/v10_0_2/lpmos/models/mos/nhhv_bjt.scs
Reading file:  /opt/pdk/xfab/XKIT/xh018/cadence/v10_0/spectre/v10_0_2/lpmos/models/mos/nmmc.scs
Reading file:  /opt/pdk/xfab/XKIT/xh018/cadence/v10_0/spectre/v10_0_2/lpmos/models/mos/nmmc_mos2.scs
Reading file:  /opt/pdk/xfab/XKIT/xh018/cadence/v10_0/spectre/v10_0_2/lpmos/models/mos/nmmc_bjt.scs
Reading file:  /opt/pdk/xfab/XKIT/xh018/cadence/v10_0/spectre/v10_0_2/lpmos/models/mos/nmmd.scs
Reading file:  /opt/pdk/xfab/XKIT/xh018/cadence/v10_0/spectre/v10_0_2/lpmos/models/mos/nmmd_mos2.scs
Reading file:  /opt/pdk/xfab/XKIT/xh018/cadence/v10_0/spectre/v10_0_2/lpmos/models/mos/nmmd_bjt.scs
Reading file:  /opt/pdk/xfab/XKIT/xh018/cadence/v10_0/spectre/v10_0_2/lpmos/models/mos/nmc.scs
Reading file:  /opt/pdk/xfab/XKIT/xh018/cadence/v10_0/spectre/v10_0_2/lpmos/models/mos/nmc_mos2.scs
Reading file:  /opt/pdk/xfab/XKIT/xh018/cadence/v10_0/spectre/v10_0_2/lpmos/models/mos/nmc_bjt.scs
Reading file:  /opt/pdk/xfab/XKIT/xh018/cadence/v10_0/spectre/v10_0_2/lpmos/models/mos/nma.scs
Reading file:  /opt/pdk/xfab/XKIT/xh018/cadence/v10_0/spectre/v10_0_2/lpmos/models/mos/nma_bjt.scs
Reading file:  /opt/pdk/xfab/XKIT/xh018/cadence/v10_0/spectre/v10_0_2/lpmos/models/mos/phv.scs
Reading file:  /opt/pdk/xfab/XKIT/xh018/cadence/v10_0/spectre/v10_0_2/lpmos/models/mos/phv_mos2.scs
Reading file:  /opt/pdk/xfab/XKIT/xh018/cadence/v10_0/spectre/v10_0_2/lpmos/models/mos/phv_bjt.scs
Reading file:  /opt/pdk/xfab/XKIT/xh018/cadence/v10_0/spectre/v10_0_2/lpmos/models/mos/phhv.scs
Reading file:  /opt/pdk/xfab/XKIT/xh018/cadence/v10_0/spectre/v10_0_2/lpmos/models/mos/phhv_mos2.scs
Reading file:  /opt/pdk/xfab/XKIT/xh018/cadence/v10_0/spectre/v10_0_2/lpmos/models/mos/phhv_bjt.scs
Reading file:  /opt/pdk/xfab/XKIT/xh018/cadence/v10_0/spectre/v10_0_2/lpmos/models/mos/pmc.scs
Reading file:  /opt/pdk/xfab/XKIT/xh018/cadence/v10_0/spectre/v10_0_2/lpmos/models/mos/pmc_mos2.scs
Reading file:  /opt/pdk/xfab/XKIT/xh018/cadence/v10_0/spectre/v10_0_2/lpmos/models/mos/pmc_bjt.scs
Reading file:  /opt/pdk/xfab/XKIT/xh018/cadence/v10_0/spectre/v10_0_2/lpmos/models/mos/pmmc.scs
Reading file:  /opt/pdk/xfab/XKIT/xh018/cadence/v10_0/spectre/v10_0_2/lpmos/models/mos/pmmc_mos2.scs
Reading file:  /opt/pdk/xfab/XKIT/xh018/cadence/v10_0/spectre/v10_0_2/lpmos/models/mos/pmmc_bjt.scs
Reading file:  /opt/pdk/xfab/XKIT/xh018/cadence/v10_0/spectre/v10_0_2/lpmos/models/mos/pma.scs
Reading file:  /opt/pdk/xfab/XKIT/xh018/cadence/v10_0/spectre/v10_0_2/lpmos/models/mos/pma_bjt.scs
Reading file:  /opt/pdk/xfab/XKIT/xh018/cadence/v10_0/spectre/v10_0_2/lpmos/models/mos/pmb.scs
Reading file:  /opt/pdk/xfab/XKIT/xh018/cadence/v10_0/spectre/v10_0_2/lpmos/models/mos/nesvt.scs
Reading file:  /opt/pdk/xfab/XKIT/xh018/cadence/v10_0/spectre/v10_0_2/lpmos/models/mos/nesvti.scs
Reading file:  /opt/pdk/xfab/XKIT/xh018/cadence/v10_0/spectre/v10_0_2/lpmos/models/mos/nesvti_6.scs
Reading file:  /opt/pdk/xfab/XKIT/xh018/cadence/v10_0/spectre/v10_0_2/lpmos/models/mos/nesvti_m_6.scs
Reading file:  /opt/pdk/xfab/XKIT/xh018/cadence/v10_0/spectre/v10_0_2/lpmos/models/mos/pesvt.scs
Reading file:  /opt/pdk/xfab/XKIT/xh018/cadence/v10_0/spectre/v10_0_2/lpmos/models/mos/pesvt_5.scs
Reading file:  /opt/pdk/xfab/XKIT/xh018/cadence/v10_0/spectre/v10_0_2/lpmos/models/mos/pesvti.scs
Reading file:  /opt/pdk/xfab/XKIT/xh018/cadence/v10_0/spectre/v10_0_2/lpmos/models/mos/pesvti_5.scs
Reading file:  /opt/pdk/xfab/XKIT/xh018/cadence/v10_0/spectre/v10_0_2/lpmos/models/mos/pesvti_m_5.scs
Reading file:  /opt/pdk/xfab/XKIT/xh018/cadence/v10_0/spectre/v10_0_2/lpmos/models/mos/nhvd.scs
Reading file:  /opt/pdk/xfab/XKIT/xh018/cadence/v10_0/spectre/v10_0_2/lpmos/models/mos/nhvd_bjt.scs
Reading file:  /opt/pdk/xfab/XKIT/xh018/cadence/v10_0/spectre/v10_0_2/lpmos/models/mos/nhhvd.scs
Reading file:  /opt/pdk/xfab/XKIT/xh018/cadence/v10_0/spectre/v10_0_2/lpmos/models/mos/nhhvd_bjt.scs
Reading file:  /opt/pdk/xfab/XKIT/xh018/cadence/v10_0/spectre/v10_0_2/lpmos/photo.scs
Reading file:  /opt/pdk/xfab/XKIT/xh018/cadence/v10_0/spectre/v10_0_2/lpmos/models/photo/tm_pho.scs
Reading file:  /opt/pdk/xfab/XKIT/xh018/cadence/v10_0/spectre/v10_0_2/lpmos/models/photo/dphoa.scs
Reading file:  /opt/pdk/xfab/XKIT/xh018/cadence/v10_0/spectre/v10_0_2/lpmos/models/photo/dpho.va
Reading link:  /opt/tools/cadence/installs/SPECTRE241/tools.lnx86/spectre/etc/ahdl/constants.h
Reading file:  /opt/tools/cadence/installs/SPECTRE241/tools.lnx86/spectre/etc/ahdl/constants.vams
Reading link:  /opt/tools/cadence/installs/SPECTRE241/tools.lnx86/spectre/etc/ahdl/discipline.h
Reading file:  /opt/tools/cadence/installs/SPECTRE241/tools.lnx86/spectre/etc/ahdl/disciplines.vams
Reading file:  /opt/pdk/xfab/XKIT/xh018/cadence/v10_0/spectre/v10_0_2/lpmos/models/photo/dphob.scs
Reading file:  /opt/pdk/xfab/XKIT/xh018/cadence/v10_0/spectre/v10_0_2/lpmos/models/photo/dphoc.scs
Reading file:  /opt/pdk/xfab/XKIT/xh018/cadence/v10_0/spectre/v10_0_2/lpmos/models/photo/iphoto_uv.va
Reading file:  /opt/pdk/xfab/XKIT/xh018/cadence/v10_0/spectre/v10_0_2/lpmos/models/photo/dphoc_cat.scs
Reading file:  /opt/pdk/xfab/XKIT/xh018/cadence/v10_0/spectre/v10_0_2/lpmos/models/photo/dphoc0.scs
Reading file:  /opt/pdk/xfab/XKIT/xh018/cadence/v10_0/spectre/v10_0_2/lpmos/models/photo/dphoc0_cat.scs
Reading file:  /opt/pdk/xfab/XKIT/xh018/cadence/v10_0/spectre/v10_0_2/lpmos/models/photo/dphocfp.scs
Reading file:  /opt/pdk/xfab/XKIT/xh018/cadence/v10_0/spectre/v10_0_2/lpmos/models/photo/dphocfp_cat.scs
Reading file:  /opt/pdk/xfab/XKIT/xh018/cadence/v10_0/spectre/v10_0_2/lpmos/models/photo/dphod.scs
Reading file:  /opt/pdk/xfab/XKIT/xh018/cadence/v10_0/spectre/v10_0_2/lpmos/models/photo/dphod_an1.scs
Reading file:  /opt/pdk/xfab/XKIT/xh018/cadence/v10_0/spectre/v10_0_2/lpmos/models/photo/dphod_an2.scs
Reading file:  /opt/pdk/xfab/XKIT/xh018/cadence/v10_0/spectre/v10_0_2/lpmos/models/photo/dphod0.scs
Reading file:  /opt/pdk/xfab/XKIT/xh018/cadence/v10_0/spectre/v10_0_2/lpmos/models/photo/dphod0_an1.scs
Reading file:  /opt/pdk/xfab/XKIT/xh018/cadence/v10_0/spectre/v10_0_2/lpmos/models/photo/dphod0_an2.scs
Reading file:  /opt/pdk/xfab/XKIT/xh018/cadence/v10_0/spectre/v10_0_2/lpmos/models/photo/dphodfp.scs
Reading file:  /opt/pdk/xfab/XKIT/xh018/cadence/v10_0/spectre/v10_0_2/lpmos/models/photo/dphodfp_an1.scs
Reading file:  /opt/pdk/xfab/XKIT/xh018/cadence/v10_0/spectre/v10_0_2/lpmos/models/photo/dphodfp_an2.scs
Reading file:  /opt/pdk/xfab/XKIT/xh018/cadence/v10_0/spectre/v10_0_2/lpmos/models/photo/dspada0.scs
Reading file:  /opt/pdk/xfab/XKIT/xh018/cadence/v10_0/spectre/v10_0_2/lpmos/models/photo/ispad.va
Reading file:  /opt/pdk/xfab/XKIT/xh018/cadence/v10_0/spectre/v10_0_2/lpmos/models/photo/dapb.scs
Reading file:  /opt/pdk/xfab/XKIT/xh018/cadence/v10_0/spectre/v10_0_2/lpmos/models/photo/iphoto_apd_trig.va
Reading file:  /opt/pdk/xfab/XKIT/xh018/cadence/v10_0/spectre/v10_0_2/lpmos/models/photo/dapb_jun.scs
Reading file:  /opt/pdk/xfab/XKIT/xh018/cadence/v10_0/spectre/v10_0_2/lpmos/models/photo/dapb_trig.scs
Reading file:  /opt/pdk/xfab/XKIT/xh018/cadence/v10_0/spectre/v10_0_2/lpmos/models/photo/dapb0.scs
Reading file:  /opt/pdk/xfab/XKIT/xh018/cadence/v10_0/spectre/v10_0_2/lpmos/models/photo/dapb0_jun.scs
Reading file:  /opt/pdk/xfab/XKIT/xh018/cadence/v10_0/spectre/v10_0_2/lpmos/models/photo/dspb.scs
Reading file:  /opt/pdk/xfab/XKIT/xh018/cadence/v10_0/spectre/v10_0_2/lpmos/models/photo/ispad_trig.va
Reading file:  /opt/pdk/xfab/XKIT/xh018/cadence/v10_0/spectre/v10_0_2/lpmos/models/photo/dspb_jun.scs
Reading file:  /opt/pdk/xfab/XKIT/xh018/cadence/v10_0/spectre/v10_0_2/lpmos/models/photo/dspb_trig.scs
Reading file:  /opt/pdk/xfab/XKIT/xh018/cadence/v10_0/spectre/v10_0_2/lpmos/models/photo/dspb0.scs
Reading file:  /opt/pdk/xfab/XKIT/xh018/cadence/v10_0/spectre/v10_0_2/lpmos/models/photo/dspb0_jun.scs
Reading file:  /opt/pdk/xfab/XKIT/xh018/cadence/v10_0/spectre/v10_0_2/lpmos/models/photo/dspbfep.scs
Reading file:  /opt/pdk/xfab/XKIT/xh018/cadence/v10_0/spectre/v10_0_2/lpmos/models/photo/dapda.scs
Reading file:  /opt/pdk/xfab/XKIT/xh018/cadence/v10_0/spectre/v10_0_2/lpmos/models/photo/iphoto_apd.va
Reading file:  /opt/pdk/xfab/XKIT/xh018/cadence/v10_0/spectre/v10_0_2/lpmos/models/photo/dapda_cat.scs
Reading file:  /opt/pdk/xfab/XKIT/xh018/cadence/v10_0/spectre/v10_0_2/lpmos/models/photo/dapda0.scs
Reading file:  /opt/pdk/xfab/XKIT/xh018/cadence/v10_0/spectre/v10_0_2/lpmos/models/photo/dspada.scs
Reading file:  /opt/pdk/xfab/XKIT/xh018/cadence/v10_0/spectre/v10_0_2/lpmos/models/photo/dspada_cat.scs
Reading file:  /opt/pdk/xfab/XKIT/xh018/cadence/v10_0/spectre/v10_0_2/lpmos/res.scs
Reading file:  /opt/pdk/xfab/XKIT/xh018/cadence/v10_0/spectre/v10_0_2/lpmos/models/res/tm_res.scs
Reading file:  /opt/pdk/xfab/XKIT/xh018/cadence/v10_0/spectre/v10_0_2/lpmos/models/res/rdn.scs
Reading file:  /opt/pdk/xfab/XKIT/xh018/cadence/v10_0/spectre/v10_0_2/lpmos/models/res/rdn_esd.scs
Reading file:  /opt/pdk/xfab/XKIT/xh018/cadence/v10_0/spectre/v10_0_2/lpmos/models/res/rdp.scs
Reading file:  /opt/pdk/xfab/XKIT/xh018/cadence/v10_0/spectre/v10_0_2/lpmos/models/res/rdp_io.scs
Reading file:  /opt/pdk/xfab/XKIT/xh018/cadence/v10_0/spectre/v10_0_2/lpmos/models/res/rdp_esd.scs
Reading file:  /opt/pdk/xfab/XKIT/xh018/cadence/v10_0/spectre/v10_0_2/lpmos/models/res/rnw.scs
Reading file:  /opt/pdk/xfab/XKIT/xh018/cadence/v10_0/spectre/v10_0_2/lpmos/models/res/rnw_scr.scs
Reading file:  /opt/pdk/xfab/XKIT/xh018/cadence/v10_0/spectre/v10_0_2/lpmos/models/res/rdn3.scs
Reading file:  /opt/pdk/xfab/XKIT/xh018/cadence/v10_0/spectre/v10_0_2/lpmos/models/res/rdp3.scs
Reading file:  /opt/pdk/xfab/XKIT/xh018/cadence/v10_0/spectre/v10_0_2/lpmos/models/res/rnw3.scs
Reading file:  /opt/pdk/xfab/XKIT/xh018/cadence/v10_0/spectre/v10_0_2/lpmos/models/res/rnw3_scr.scs
Reading file:  /opt/pdk/xfab/XKIT/xh018/cadence/v10_0/spectre/v10_0_2/lpmos/models/res/rdnwmv.scs
Reading file:  /opt/pdk/xfab/XKIT/xh018/cadence/v10_0/spectre/v10_0_2/lpmos/models/res/rnp1.scs
Reading file:  /opt/pdk/xfab/XKIT/xh018/cadence/v10_0/spectre/v10_0_2/lpmos/models/res/rnp1_3.scs
Reading file:  /opt/pdk/xfab/XKIT/xh018/cadence/v10_0/spectre/v10_0_2/lpmos/models/res/rpp1.scs
Reading file:  /opt/pdk/xfab/XKIT/xh018/cadence/v10_0/spectre/v10_0_2/lpmos/models/res/rpp1_3.scs
Reading file:  /opt/pdk/xfab/XKIT/xh018/cadence/v10_0/spectre/v10_0_2/lpmos/models/res/rpp1s.scs
Reading file:  /opt/pdk/xfab/XKIT/xh018/cadence/v10_0/spectre/v10_0_2/lpmos/models/res/rpp1s_3.scs
Reading file:  /opt/pdk/xfab/XKIT/xh018/cadence/v10_0/spectre/v10_0_2/lpmos/models/res/rnp1h.scs
Reading file:  /opt/pdk/xfab/XKIT/xh018/cadence/v10_0/spectre/v10_0_2/lpmos/models/res/rnp1h_3.scs
Reading file:  /opt/pdk/xfab/XKIT/xh018/cadence/v10_0/spectre/v10_0_2/lpmos/models/res/rpp1k1.scs
Reading file:  /opt/pdk/xfab/XKIT/xh018/cadence/v10_0/spectre/v10_0_2/lpmos/models/res/rpp1k1_3.scs
Reading file:  /opt/pdk/xfab/XKIT/xh018/cadence/v10_0/spectre/v10_0_2/lpmos/models/res/rctdn.scs
Reading file:  /opt/pdk/xfab/XKIT/xh018/cadence/v10_0/spectre/v10_0_2/lpmos/models/res/rctdp.scs
Reading file:  /opt/pdk/xfab/XKIT/xh018/cadence/v10_0/spectre/v10_0_2/lpmos/models/res/rctp1.scs
Reading file:  /opt/pdk/xfab/XKIT/xh018/cadence/v10_0/spectre/v10_0_2/lpmos/models/res/rsildn.scs
Reading file:  /opt/pdk/xfab/XKIT/xh018/cadence/v10_0/spectre/v10_0_2/lpmos/models/res/rsildp.scs
Reading file:  /opt/pdk/xfab/XKIT/xh018/cadence/v10_0/spectre/v10_0_2/lpmos/models/res/rsilnp1.scs
Reading file:  /opt/pdk/xfab/XKIT/xh018/cadence/v10_0/spectre/v10_0_2/lpmos/models/res/rsilpp1.scs
Reading file:  /opt/pdk/xfab/XKIT/xh018/cadence/v10_0/spectre/v10_0_2/lpmos/models/res/rsbdn.scs
Reading file:  /opt/pdk/xfab/XKIT/xh018/cadence/v10_0/spectre/v10_0_2/lpmos/models/res/rsbdp.scs
Reading file:  /opt/pdk/xfab/XKIT/xh018/cadence/v10_0/spectre/v10_0_2/lpmos/models/res/rsbdn3.scs
Reading file:  /opt/pdk/xfab/XKIT/xh018/cadence/v10_0/spectre/v10_0_2/lpmos/models/res/rsbdp3.scs
Reading file:  /opt/pdk/xfab/XKIT/xh018/cadence/v10_0/spectre/v10_0_2/lpmos/models/res/rsbnp1.scs
Reading file:  /opt/pdk/xfab/XKIT/xh018/cadence/v10_0/spectre/v10_0_2/lpmos/models/res/rsbpp1.scs
Reading file:  /opt/pdk/xfab/XKIT/xh018/cadence/v10_0/spectre/v10_0_2/lpmos/models/res/rsbpp1k1.scs
Reading file:  /opt/pdk/xfab/XKIT/xh018/cadence/v10_0/spectre/v10_0_2/lpmos/models/res/rm1.scs
Reading file:  /opt/pdk/xfab/XKIT/xh018/cadence/v10_0/spectre/v10_0_2/lpmos/models/res/rm2.scs
Reading file:  /opt/pdk/xfab/XKIT/xh018/cadence/v10_0/spectre/v10_0_2/lpmos/models/res/rm3.scs
Reading file:  /opt/pdk/xfab/XKIT/xh018/cadence/v10_0/spectre/v10_0_2/lpmos/models/res/rm4.scs
Reading file:  /opt/pdk/xfab/XKIT/xh018/cadence/v10_0/spectre/v10_0_2/lpmos/models/res/rm5.scs
Reading file:  /opt/pdk/xfab/XKIT/xh018/cadence/v10_0/spectre/v10_0_2/lpmos/models/res/rmtp.scs
Reading file:  /opt/pdk/xfab/XKIT/xh018/cadence/v10_0/spectre/v10_0_2/lpmos/models/res/rmtpl.scs
Reading file:  /opt/pdk/xfab/XKIT/xh018/cadence/v10_0/spectre/v10_0_2/lpmos/models/res/pfuse.scs
Reading file:  /opt/pdk/xfab/XKIT/xh018/cadence/v10_0/spectre/v10_0_2/lpmos/models/res/s_res.scs
Time for NDB Parsing: CPU = 192.052 ms, elapsed = 555.705 ms.
Time accumulated: CPU = 337.664 ms, elapsed = 555.707 ms.
Peak resident memory used = 192 Mbytes.

Time for Elaboration: CPU = 13.535 ms, elapsed = 14.828 ms.
Time accumulated: CPU = 351.265 ms, elapsed = 570.699 ms.
Peak resident memory used = 197 Mbytes.


Notice from spectre during hierarchy flattening.
    The value 'psf' specified for the 'checklimitdest' option will no longer be supported in future releases. Use 'spectre -h' to see other recommended values for the 'checklimitdest' option.


Time for EDB Visiting: CPU = 745 us, elapsed = 1.06907 ms.
Time accumulated: CPU = 352.109 ms, elapsed = 571.951 ms.
Peak resident memory used = 198 Mbytes.


Notice from spectre during initial setup.
    Multithreading is disabled due to the size of the design being too small.


Netlist title:
        // Point Netlist Generated on: Nov 13 09:43:31 2025


Global user options:
         psfversion = 1.4.0
            vabstol = 1e-06
            iabstol = 1e-12
               temp = 27
               gmin = 1e-12
             rforce = 1
           maxnotes = 5
           maxwarns = 5
             digits = 5
               cols = 80
             pivrel = 0.001
           sensfile = ../psf/sens.output
     checklimitdest = psf
               save = allpub
             reltol = 0.001
               tnom = 27
             scalem = 1
              scale = 1

Scoped user options:

Circuit inventory:
              nodes 4
          capacitor 18    
            isource 2     
           resistor 5     
               vccs 3     

Analysis and control statement inventory:
               info 6     
                 pz 1     

Output statements:
             .probe 0     
           .measure 0     
               save 0     


Notice from spectre during initial setup.
    APS enabled.

Time for parsing: CPU = 1.811 ms, elapsed = 17.4849 ms.
Time accumulated: CPU = 353.985 ms, elapsed = 589.579 ms.
Peak resident memory used = 201 Mbytes.

~~~~~~~~~~~~~~~~~~~~~~
Pre-Simulation Summary
~~~~~~~~~~~~~~~~~~~~~~
   -   (APS) Multi-threading. The recommended number of threads is 1, consider adding +mt=1 on command line.
~~~~~~~~~~~~~~~~~~~~~~

**************************************
PZ Analysis `pz': gm1 = (0 -> 227e-06)
**************************************
Convergence achieved in 2 iterations.
DC simulation time: CPU = 312 us, elapsed = 659.943 us.

Opening the PSF file ../psf/pz.pz ...

0              0.00% 
Convergence achieved in 2 iterations.
DC simulation time: CPU = 60 us, elapsed = 73.9098 us.
                      Poles (Hz)

           Real                       Imaginary                 Qfactor

   1   -1.76357e+03                  0.00000e+00              5.00000e-01 
   2   -1.77323e+04                  0.00000e+00              5.00000e-01 
   3   -8.89938e+05                  0.00000e+00              5.00000e-01 
   4   -2.38122e+07                  0.00000e+00              5.00000e-01 

                      Zeros (Hz)
                      at V(VOUT,0)/I5

           Real                       Imaginary                 Qfactor

   1    1.08152e+02                  0.00000e+00              -5.00000e-01
   2   -3.24962e+04                  0.00000e+00              5.00000e-01 
   3    2.47573e+08                  0.00000e+00              -5.00000e-01

Constant factor =  7.38789e+10

DC gain =  1.54381e+04


4.54e-06       2.00% 
Convergence achieved in 2 iterations.
DC simulation time: CPU = 138 us, elapsed = 153.065 us.
                      Poles (Hz)

           Real                       Imaginary                 Qfactor

   1   -4.13805e+05              +/- 7.67542e+05              1.05362e+00 
   2   -1.56479e+06                  0.00000e+00              5.00000e-01 
   3   -2.34549e+07                  0.00000e+00              5.00000e-01 

                      Zeros (Hz)
                      at V(VOUT,0)/I5

           Real                       Imaginary                 Qfactor

   1   -2.59850e+06                  0.00000e+00              5.00000e-01 
   2   -3.61939e+06                  0.00000e+00              5.00000e-01 
   3    2.51687e+08                  0.00000e+00              -5.00000e-01

Constant factor =  7.38789e+10

DC gain =  9.97360e+05

.
9.08e-06       4.00% 
Convergence achieved in 2 iterations.
DC simulation time: CPU = 82 us, elapsed = 105.858 us.
                      Poles (Hz)

           Real                       Imaginary                 Qfactor

   1   -4.73616e+05              +/- 1.18257e+06              1.34485e+00 
   2   -2.96542e+06                  0.00000e+00              5.00000e-01 
   3   -2.30604e+07                  0.00000e+00              5.00000e-01 

                      Zeros (Hz)
                      at V(VOUT,0)/I5

           Real                       Imaginary                 Qfactor

   1   -5.26045e+06                  0.00000e+00              5.00000e-01 
   2   -7.00814e+06                  0.00000e+00              5.00000e-01 
   3    2.55667e+08                  0.00000e+00              -5.00000e-01

Constant factor =  7.38789e+10

DC gain =  9.98678e+05

...
13.62e-06      6.00% 
Convergence achieved in 2 iterations.
DC simulation time: CPU = 74 us, elapsed = 87.0228 us.
                      Poles (Hz)

           Real                       Imaginary                 Qfactor

   1   -5.29256e+05              +/- 1.48699e+06              1.49112e+00 
   2   -4.42262e+06                  0.00000e+00              5.00000e-01 
   3   -2.26177e+07                  0.00000e+00              5.00000e-01 

                      Zeros (Hz)
                      at V(VOUT,0)/I5

           Real                       Imaginary                 Qfactor

   1   -8.00981e+06                  0.00000e+00              5.00000e-01 
   2   -1.01864e+07                  0.00000e+00              5.00000e-01 
   3    2.59524e+08                  0.00000e+00              -5.00000e-01

Constant factor =  7.38789e+10

DC gain =  9.99119e+05

....
18.16e-06      8.00% 
Convergence achieved in 2 iterations.
DC simulation time: CPU = 67 us, elapsed = 80.8239 us.
                      Poles (Hz)

           Real                       Imaginary                 Qfactor

   1   -5.84410e+05              +/- 1.73928e+06              1.56982e+00 
   2   -5.94587e+06                  0.00000e+00              5.00000e-01 
   3   -2.21098e+07                  0.00000e+00              5.00000e-01 

                      Zeros (Hz)
                      at V(VOUT,0)/I5

           Real                       Imaginary                 Qfactor

   1   -1.08866e+07                  0.00000e+00              5.00000e-01 
   2   -1.31244e+07                  0.00000e+00              5.00000e-01 
   3    2.63267e+08                  0.00000e+00              -5.00000e-01

Constant factor =  7.38789e+10

DC gain =  9.99339e+05

......
22.7e-06      10.00% 
Convergence achieved in 2 iterations.
DC simulation time: CPU = 67 us, elapsed = 78.9165 us.
                      Poles (Hz)

           Real                       Imaginary                 Qfactor

   1   -6.39613e+05              +/- 1.95957e+06              1.61138e+00 
   2   -7.56228e+06                  0.00000e+00              5.00000e-01 
   3   -2.15088e+07                  0.00000e+00              5.00000e-01 

                      Zeros (Hz)
                      at V(VOUT,0)/I5

           Real                       Imaginary                 Qfactor

   1   -1.40013e+07                  0.00000e+00              5.00000e-01 
   2   -1.57202e+07                  0.00000e+00              5.00000e-01 
   3    2.66907e+08                  0.00000e+00              -5.00000e-01

Constant factor =  7.38789e+10

DC gain =  9.99471e+05

......9
27.24e-06     12.00% 
Convergence achieved in 2 iterations.
DC simulation time: CPU = 75 us, elapsed = 87.0228 us.
                      Poles (Hz)

           Real                       Imaginary                 Qfactor

   1   -6.95019e+05              +/- 2.15768e+06              1.63079e+00 
   2   -9.32528e+06                  0.00000e+00              5.00000e-01 
   3   -2.07607e+07                  0.00000e+00              5.00000e-01 

                      Zeros (Hz)
                      at V(VOUT,0)/I5

           Real                       Imaginary                 Qfactor

   1   -1.76679e+07              +/- 7.40292e+05              5.00439e-01 
   2    2.70450e+08                  0.00000e+00              -5.00000e-01

Constant factor =  7.38789e+10

DC gain =  9.99559e+05

......9.
31.78e-06     14.00% 
Convergence achieved in 2 iterations.
DC simulation time: CPU = 74 us, elapsed = 86.7844 us.
                      Poles (Hz)

           Real                       Imaginary                 Qfactor

   1   -7.50691e+05              +/- 2.33922e+06              1.63631e+00 
   2   -1.13646e+07                  0.00000e+00              5.00000e-01 
   3   -1.97357e+07                  0.00000e+00              5.00000e-01 

                      Zeros (Hz)
                      at V(VOUT,0)/I5

           Real                       Imaginary                 Qfactor

   1   -2.04302e+07              +/- 1.66489e+06              5.01657e-01 
   2    2.73904e+08                  0.00000e+00              -5.00000e-01

Constant factor =  7.38789e+10

DC gain =  9.99622e+05

......9...
36.32e-06     16.00% 
Convergence achieved in 2 iterations.
DC simulation time: CPU = 69 us, elapsed = 78.9165 us.
                      Poles (Hz)

           Real                       Imaginary                 Qfactor

   1   -8.06664e+05              +/- 2.50781e+06              1.63287e+00 
   2   -1.42940e+07                  0.00000e+00              5.00000e-01 
   3   -1.78201e+07                  0.00000e+00              5.00000e-01 

                      Zeros (Hz)
                      at V(VOUT,0)/I5

           Real                       Imaginary                 Qfactor

   1   -2.31507e+07              +/- 2.46431e+06              5.02825e-01 
   2    2.77274e+08                  0.00000e+00              -5.00000e-01

Constant factor =  7.38789e+10

DC gain =  9.99669e+05

......9....
40.86e-06     18.00% 
Convergence achieved in 2 iterations.
DC simulation time: CPU = 58 us, elapsed = 1.82414 ms.
                      Poles (Hz)

           Real                       Imaginary                 Qfactor

   1   -8.62955e+05              +/- 2.66591e+06              1.62355e+00 
   2   -1.65636e+07              +/- 3.24628e+06              5.09512e-01 

                      Zeros (Hz)
                      at V(VOUT,0)/I5

           Real                       Imaginary                 Qfactor

   1   -2.58321e+07              +/- 3.25134e+06              5.03945e-01 
   2    2.80566e+08                  0.00000e+00              -5.00000e-01

Constant factor =  7.38789e+10

DC gain =  9.99706e+05

......9......
45.4e-06      20.00% 
Convergence achieved in 2 iterations.
DC simulation time: CPU = 87 us, elapsed = 104.189 us.
                      Poles (Hz)

           Real                       Imaginary                 Qfactor

   1   -9.19580e+05              +/- 2.81528e+06              1.61033e+00 
   2   -1.70699e+07              +/- 4.83938e+06              5.19705e-01 

                      Zeros (Hz)
                      at V(VOUT,0)/I5

           Real                       Imaginary                 Qfactor

   1   -2.84768e+07              +/- 4.04607e+06              5.05022e-01 
   2    2.83784e+08                  0.00000e+00              -5.00000e-01

Constant factor =  7.38789e+10

DC gain =  9.99735e+05

......9......8
49.94e-06     22.00% 
Convergence achieved in 2 iterations.
DC simulation time: CPU = 73 us, elapsed = 92.9832 us.
                      Poles (Hz)

           Real                       Imaginary                 Qfactor

   1   -9.76550e+05              +/- 2.95726e+06              1.59456e+00 
   2   -1.75758e+07              +/- 5.96106e+06              5.27975e-01 

                      Zeros (Hz)
                      at V(VOUT,0)/I5

           Real                       Imaginary                 Qfactor

   1   -3.10870e+07              +/- 4.85396e+06              5.06058e-01 
   2    2.86933e+08                  0.00000e+00              -5.00000e-01

Constant factor =  7.38789e+10

DC gain =  9.99759e+05

......9......8.
54.48e-06     24.00% 
Convergence achieved in 2 iterations.
DC simulation time: CPU = 98 us, elapsed = 118.017 us.
                      Poles (Hz)

           Real                       Imaginary                 Qfactor

   1   -1.03387e+06              +/- 3.09287e+06              1.57712e+00 
   2   -1.80813e+07              +/- 6.84696e+06              5.34648e-01 

                      Zeros (Hz)
                      at V(VOUT,0)/I5

           Real                       Imaginary                 Qfactor

   1   -3.36646e+07              +/- 5.67624e+06              5.07058e-01 
   2    2.90018e+08                  0.00000e+00              -5.00000e-01

Constant factor =  7.38789e+10

DC gain =  9.99779e+05

......9......8...
59.02e-06     26.00% 
Convergence achieved in 2 iterations.
DC simulation time: CPU = 83 us, elapsed = 123.024 us.
                      Poles (Hz)

           Real                       Imaginary                 Qfactor

   1   -1.09156e+06              +/- 3.22291e+06              1.55866e+00 
   2   -1.85865e+07              +/- 7.58012e+06              5.39983e-01 

                      Zeros (Hz)
                      at V(VOUT,0)/I5

           Real                       Imaginary                 Qfactor

   1   -3.62115e+07              +/- 6.51265e+06              5.08022e-01 
   2    2.93040e+08                  0.00000e+00              -5.00000e-01

Constant factor =  7.38789e+10

DC gain =  9.99796e+05

......9......8....
63.56e-06     28.00% 
Convergence achieved in 2 iterations.
DC simulation time: CPU = 113 us, elapsed = 129.938 us.
                      Poles (Hz)

           Real                       Imaginary                 Qfactor

   1   -1.14961e+06              +/- 3.34806e+06              1.53962e+00 
   2   -1.90913e+07              +/- 8.20154e+06              5.44186e-01 

                      Zeros (Hz)
                      at V(VOUT,0)/I5

           Real                       Imaginary                 Qfactor

   1   -3.87292e+07              +/- 7.36239e+06              5.08954e-01 
   2    2.96005e+08                  0.00000e+00              -5.00000e-01

Constant factor =  7.38789e+10

DC gain =  9.99811e+05

......9......8......
68.1e-06      30.00% 
Convergence achieved in 2 iterations.
DC simulation time: CPU = 94 us, elapsed = 110.865 us.
                      Poles (Hz)

           Real                       Imaginary                 Qfactor

   1   -1.20805e+06              +/- 3.46883e+06              1.52029e+00 
   2   -1.95957e+07              +/- 8.73500e+06              5.47426e-01 

                      Zeros (Hz)
                      at V(VOUT,0)/I5

           Real                       Imaginary                 Qfactor

   1   -4.12192e+07              +/- 8.22446e+06              5.09856e-01 
   2    2.98914e+08                  0.00000e+00              -5.00000e-01

Constant factor =  7.38789e+10

DC gain =  9.99824e+05

......9......8......7
72.64e-06     32.00% 
Convergence achieved in 2 iterations.
DC simulation time: CPU = 90 us, elapsed = 2.97689 ms.
                      Poles (Hz)

           Real                       Imaginary                 Qfactor

   1   -1.26687e+06              +/- 3.58569e+06              1.50091e+00 
   2   -2.00998e+07              +/- 9.19576e+06              5.49843e-01 

                      Zeros (Hz)
                      at V(VOUT,0)/I5

           Real                       Imaginary                 Qfactor

   1   -4.36829e+07              +/- 9.09781e+06              5.10729e-01 
   2    3.01770e+08                  0.00000e+00              -5.00000e-01

Constant factor =  7.38789e+10

DC gain =  9.99835e+05

......9......8......7.
77.18e-06     34.00% 
Convergence achieved in 2 iterations.
DC simulation time: CPU = 76 us, elapsed = 1.93405 ms.
                      Poles (Hz)

           Real                       Imaginary                 Qfactor

   1   -1.32608e+06              +/- 3.69900e+06              1.48162e+00 
   2   -2.06034e+07              +/- 9.59423e+06              5.51552e-01 

                      Zeros (Hz)
                      at V(VOUT,0)/I5

           Real                       Imaginary                 Qfactor

   1   -4.61216e+07              +/- 9.98147e+06              5.11575e-01 
   2    3.04577e+08                  0.00000e+00              -5.00000e-01

Constant factor =  7.38789e+10

DC gain =  9.99844e+05

......9......8......7...
81.72e-06     36.00% 
Convergence achieved in 2 iterations.
DC simulation time: CPU = 83 us, elapsed = 1.81103 ms.
                      Poles (Hz)

           Real                       Imaginary                 Qfactor

   1   -1.38570e+06              +/- 3.80910e+06              1.46255e+00 
   2   -2.11067e+07              +/- 9.93783e+06              5.52650e-01 

                      Zeros (Hz)
                      at V(VOUT,0)/I5

           Real                       Imaginary                 Qfactor

   1   -4.85364e+07              +/- 1.08745e+07              5.12396e-01 
   2    3.07335e+08                  0.00000e+00              -5.00000e-01

Constant factor =  7.38789e+10

DC gain =  9.99853e+05

......9......8......7....
86.26e-06     38.00% 
Convergence achieved in 2 iterations.
DC simulation time: CPU = 69 us, elapsed = 1.35207 ms.
                      Poles (Hz)

           Real                       Imaginary                 Qfactor

   1   -1.44573e+06              +/- 3.91626e+06              1.44377e+00 
   2   -2.16095e+07              +/- 1.02320e+07              5.53217e-01 

                      Zeros (Hz)
                      at V(VOUT,0)/I5

           Real                       Imaginary                 Qfactor

   1   -5.09283e+07              +/- 1.17760e+07              5.13193e-01 
   2    3.10048e+08                  0.00000e+00              -5.00000e-01

Constant factor =  7.38789e+10

DC gain =  9.99861e+05

......9......8......7......
90.8e-06      40.00% 
Convergence achieved in 2 iterations.
DC simulation time: CPU = 65 us, elapsed = 1.44696 ms.
                      Poles (Hz)

           Real                       Imaginary                 Qfactor

   1   -1.50617e+06              +/- 4.02072e+06              1.42533e+00 
   2   -2.21120e+07              +/- 1.04809e+07              5.53324e-01 

                      Zeros (Hz)
                      at V(VOUT,0)/I5

           Real                       Imaginary                 Qfactor

   1   -5.32985e+07              +/- 1.26853e+07              5.13967e-01 
   2    3.12717e+08                  0.00000e+00              -5.00000e-01

Constant factor =  7.38789e+10

DC gain =  9.99868e+05

......9......8......7......6
95.34e-06     42.00% 
Convergence achieved in 2 iterations.
DC simulation time: CPU = 59 us, elapsed = 1.55592 ms.
                      Poles (Hz)

           Real                       Imaginary                 Qfactor

   1   -1.56704e+06              +/- 4.12269e+06              1.40726e+00 
   2   -2.26140e+07              +/- 1.06875e+07              5.53028e-01 

                      Zeros (Hz)
                      at V(VOUT,0)/I5

           Real                       Imaginary                 Qfactor

   1   -5.56477e+07              +/- 1.36016e+07              5.14719e-01 
   2    3.15345e+08                  0.00000e+00              -5.00000e-01

Constant factor =  7.38789e+10

DC gain =  9.99874e+05

......9......8......7......6.
99.88e-06     44.00% 
Convergence achieved in 2 iterations.
DC simulation time: CPU = 69 us, elapsed = 1.88899 ms.
                      Poles (Hz)

           Real                       Imaginary                 Qfactor

   1   -1.62834e+06              +/- 4.22237e+06              1.38959e+00 
   2   -2.31155e+07              +/- 1.08543e+07              5.52380e-01 

                      Zeros (Hz)
                      at V(VOUT,0)/I5

           Real                       Imaginary                 Qfactor

   1   -5.79768e+07              +/- 1.45243e+07              5.15451e-01 
   2    3.17932e+08                  0.00000e+00              -5.00000e-01

Constant factor =  7.38789e+10

DC gain =  9.99880e+05

......9......8......7......6...
104.42e-06    46.00% 
Convergence achieved in 2 iterations.
DC simulation time: CPU = 78 us, elapsed = 92.9832 us.
                      Poles (Hz)

           Real                       Imaginary                 Qfactor

   1   -1.69009e+06              +/- 4.31992e+06              1.37234e+00 
   2   -2.36166e+07              +/- 1.09829e+07              5.51424e-01 

                      Zeros (Hz)
                      at V(VOUT,0)/I5

           Real                       Imaginary                 Qfactor

   1   -6.02867e+07              +/- 1.54529e+07              5.16164e-01 
   2    3.20481e+08                  0.00000e+00              -5.00000e-01

Constant factor =  7.38789e+10

DC gain =  9.99885e+05

......9......8......7......6....
108.96e-06    48.00% 
Convergence achieved in 2 iterations.
DC simulation time: CPU = 77 us, elapsed = 93.9369 us.
                      Poles (Hz)

           Real                       Imaginary                 Qfactor

   1   -1.75229e+06              +/- 4.41549e+06              1.35551e+00 
   2   -2.41173e+07              +/- 1.10747e+07              5.50196e-01 

                      Zeros (Hz)
                      at V(VOUT,0)/I5

           Real                       Imaginary                 Qfactor

   1   -6.25781e+07              +/- 1.63867e+07              5.16858e-01 
   2    3.22992e+08                  0.00000e+00              -5.00000e-01

Constant factor =  7.38789e+10

DC gain =  9.99890e+05

......9......8......7......6......
113.5e-06     50.00% 
Convergence achieved in 2 iterations.
DC simulation time: CPU = 91 us, elapsed = 1.20807 ms.
                      Poles (Hz)

           Real                       Imaginary                 Qfactor

   1   -1.81495e+06              +/- 4.50922e+06              1.33909e+00 
   2   -2.46175e+07              +/- 1.11303e+07              5.48731e-01 

                      Zeros (Hz)
                      at V(VOUT,0)/I5

           Real                       Imaginary                 Qfactor

   1   -6.48517e+07              +/- 1.73253e+07              5.17535e-01 
   2    3.25469e+08                  0.00000e+00              -5.00000e-01

Constant factor =  7.38789e+10

DC gain =  9.99894e+05

......9......8......7......6......5
118.04e-06    52.00% 
Convergence achieved in 2 iterations.
DC simulation time: CPU = 72 us, elapsed = 83.9233 us.
                      Poles (Hz)

           Real                       Imaginary                 Qfactor

   1   -1.87808e+06              +/- 4.60123e+06              1.32310e+00 
   2   -2.51172e+07              +/- 1.11504e+07              5.47056e-01 

                      Zeros (Hz)
                      at V(VOUT,0)/I5

           Real                       Imaginary                 Qfactor

   1   -6.71081e+07              +/- 1.82683e+07              5.18195e-01 
   2    3.27910e+08                  0.00000e+00              -5.00000e-01

Constant factor =  7.38789e+10

DC gain =  9.99898e+05

......9......8......7......6......5.
122.58e-06    54.00% 
Convergence achieved in 2 iterations.
DC simulation time: CPU = 84 us, elapsed = 102.997 us.
                      Poles (Hz)

           Real                       Imaginary                 Qfactor

   1   -1.94169e+06              +/- 4.69162e+06              1.30751e+00 
   2   -2.56165e+07              +/- 1.11351e+07              5.45195e-01 

                      Zeros (Hz)
                      at V(VOUT,0)/I5

           Real                       Imaginary                 Qfactor

   1   -6.93480e+07              +/- 1.92153e+07              5.18839e-01 
   2    3.30319e+08                  0.00000e+00              -5.00000e-01

Constant factor =  7.38789e+10

DC gain =  9.99902e+05

......9......8......7......6......5...
127.12e-06    56.00% 
Convergence achieved in 2 iterations.
DC simulation time: CPU = 83 us, elapsed = 1.436 ms.
                      Poles (Hz)

           Real                       Imaginary                 Qfactor

   1   -2.00579e+06              +/- 4.78050e+06              1.29232e+00 
   2   -2.61153e+07              +/- 1.10840e+07              5.43171e-01 

                      Zeros (Hz)
                      at V(VOUT,0)/I5

           Real                       Imaginary                 Qfactor

   1   -7.15719e+07              +/- 2.01659e+07              5.19468e-01 
   2    3.32696e+08                  0.00000e+00              -5.00000e-01

Constant factor =  7.38789e+10

DC gain =  9.99905e+05

......9......8......7......6......5....
131.66e-06    58.00% 
Convergence achieved in 2 iterations.
DC simulation time: CPU = 65 us, elapsed = 84.877 us.
                      Poles (Hz)

           Real                       Imaginary                 Qfactor

   1   -2.07038e+06              +/- 4.86796e+06              1.27753e+00 
   2   -2.66135e+07              +/- 1.09966e+07              5.41002e-01 

                      Zeros (Hz)
                      at V(VOUT,0)/I5

           Real                       Imaginary                 Qfactor

   1   -7.37804e+07              +/- 2.11198e+07              5.20082e-01 
   2    3.35042e+08                  0.00000e+00              -5.00000e-01

Constant factor =  7.38789e+10

DC gain =  9.99909e+05

......9......8......7......6......5......
136.2e-06     60.00% 
Convergence achieved in 2 iterations.
DC simulation time: CPU = 66 us, elapsed = 88.9301 us.
                      Poles (Hz)

           Real                       Imaginary                 Qfactor

   1   -2.13549e+06              +/- 4.95409e+06              1.26312e+00 
   2   -2.71113e+07              +/- 1.08720e+07              5.38705e-01 

                      Zeros (Hz)
                      at V(VOUT,0)/I5

           Real                       Imaginary                 Qfactor

   1   -7.59740e+07              +/- 2.20768e+07              5.20682e-01 
   2    3.37358e+08                  0.00000e+00              -5.00000e-01

Constant factor =  7.38789e+10

DC gain =  9.99912e+05

......9......8......7......6......5......4
140.74e-06    62.00% 
Convergence achieved in 2 iterations.
DC simulation time: CPU = 57 us, elapsed = 77.9629 us.
                      Poles (Hz)

           Real                       Imaginary                 Qfactor

   1   -2.20112e+06              +/- 5.03897e+06              1.24908e+00 
   2   -2.76085e+07              +/- 1.07088e+07              5.36295e-01 

                      Zeros (Hz)
                      at V(VOUT,0)/I5

           Real                       Imaginary                 Qfactor

   1   -7.81533e+07              +/- 2.30364e+07              5.21268e-01 
   2    3.39646e+08                  0.00000e+00              -5.00000e-01

Constant factor =  7.38789e+10

DC gain =  9.99915e+05

......9......8......7......6......5......4.
145.28e-06    64.00% 
Convergence achieved in 2 iterations.
DC simulation time: CPU = 68 us, elapsed = 109.911 us.
                      Poles (Hz)

           Real                       Imaginary                 Qfactor

   1   -2.26729e+06              +/- 5.12267e+06              1.23540e+00 
   2   -2.81052e+07              +/- 1.05050e+07              5.33785e-01 

                      Zeros (Hz)
                      at V(VOUT,0)/I5

           Real                       Imaginary                 Qfactor

   1   -8.03186e+07              +/- 2.39986e+07              5.21842e-01 
   2    3.41905e+08                  0.00000e+00              -5.00000e-01

Constant factor =  7.38789e+10

DC gain =  9.99917e+05

......9......8......7......6......5......4...
149.82e-06    66.00% 
Convergence achieved in 2 iterations.
DC simulation time: CPU = 59 us, elapsed = 94.1753 us.
                      Poles (Hz)

           Real                       Imaginary                 Qfactor

   1   -2.33399e+06              +/- 5.20526e+06              1.22206e+00 
   2   -2.86014e+07              +/- 1.02582e+07              5.31187e-01 

                      Zeros (Hz)
                      at V(VOUT,0)/I5

           Real                       Imaginary                 Qfactor

   1   -8.24703e+07              +/- 2.49630e+07              5.22403e-01 
   2    3.44138e+08                  0.00000e+00              -5.00000e-01

Constant factor =  7.38789e+10

DC gain =  9.99920e+05

......9......8......7......6......5......4....
154.36e-06    68.00% 
Convergence achieved in 2 iterations.
DC simulation time: CPU = 52 us, elapsed = 78.9165 us.
                      Poles (Hz)

           Real                       Imaginary                 Qfactor

   1   -2.40126e+06              +/- 5.28680e+06              1.20907e+00 
   2   -2.90970e+07              +/- 9.96494e+06              5.28509e-01 

                      Zeros (Hz)
                      at V(VOUT,0)/I5

           Real                       Imaginary                 Qfactor

   1   -8.46090e+07              +/- 2.59294e+07              5.22953e-01 
   2    3.46344e+08                  0.00000e+00              -5.00000e-01

Constant factor =  7.38789e+10

DC gain =  9.99922e+05

......9......8......7......6......5......4......
158.9e-06     70.00% 
Convergence achieved in 2 iterations.
DC simulation time: CPU = 77 us, elapsed = 92.9832 us.
                      Poles (Hz)

           Real                       Imaginary                 Qfactor

   1   -2.46909e+06              +/- 5.36736e+06              1.19640e+00 
   2   -2.95920e+07              +/- 9.62101e+06              5.25762e-01 

                      Zeros (Hz)
                      at V(VOUT,0)/I5

           Real                       Imaginary                 Qfactor

   1   -8.67350e+07              +/- 2.68977e+07              5.23491e-01 
   2    3.48525e+08                  0.00000e+00              -5.00000e-01

Constant factor =  7.38789e+10

DC gain =  9.99924e+05

......9......8......7......6......5......4......3
163.44e-06    72.00% 
Convergence achieved in 2 iterations.
DC simulation time: CPU = 79 us, elapsed = 126.123 us.
                      Poles (Hz)

           Real                       Imaginary                 Qfactor

   1   -2.53750e+06              +/- 5.44699e+06              1.18405e+00 
   2   -3.00865e+07              +/- 9.22056e+06              5.22954e-01 

                      Zeros (Hz)
                      at V(VOUT,0)/I5

           Real                       Imaginary                 Qfactor

   1   -8.88487e+07              +/- 2.78677e+07              5.24018e-01 
   2    3.50682e+08                  0.00000e+00              -5.00000e-01

Constant factor =  7.38789e+10

DC gain =  9.99926e+05

......9......8......7......6......5......4......3.
167.98e-06    74.00% 
Convergence achieved in 2 iterations.
DC simulation time: CPU = 90 us, elapsed = 126.123 us.
                      Poles (Hz)

           Real                       Imaginary                 Qfactor

   1   -2.60650e+06              +/- 5.52575e+06              1.17200e+00 
   2   -3.05803e+07              +/- 8.75570e+06              5.20091e-01 

                      Zeros (Hz)
                      at V(VOUT,0)/I5

           Real                       Imaginary                 Qfactor

   1   -9.09504e+07              +/- 2.88392e+07              5.24534e-01 
   2    3.52814e+08                  0.00000e+00              -5.00000e-01

Constant factor =  7.38789e+10

DC gain =  9.99928e+05

......9......8......7......6......5......4......3...
172.52e-06    76.00% 
Convergence achieved in 2 iterations.
DC simulation time: CPU = 52 us, elapsed = 62.9425 us.
                      Poles (Hz)

           Real                       Imaginary                 Qfactor

   1   -2.67611e+06              +/- 5.60368e+06              1.16025e+00 
   2   -3.10736e+07              +/- 8.21536e+06              5.17180e-01 

                      Zeros (Hz)
                      at V(VOUT,0)/I5

           Real                       Imaginary                 Qfactor

   1   -9.30405e+07              +/- 2.98121e+07              5.25040e-01 
   2    3.54923e+08                  0.00000e+00              -5.00000e-01

Constant factor =  7.38789e+10

DC gain =  9.99930e+05

......9......8......7......6......5......4......3....
177.06e-06    78.00% 
Convergence achieved in 2 iterations.
DC simulation time: CPU = 53 us, elapsed = 68.903 us.
                      Poles (Hz)

           Real                       Imaginary                 Qfactor

   1   -2.74635e+06              +/- 5.68084e+06              1.14877e+00 
   2   -3.15662e+07              +/- 7.58325e+06              5.14226e-01 

                      Zeros (Hz)
                      at V(VOUT,0)/I5

           Real                       Imaginary                 Qfactor

   1   -9.51193e+07              +/- 3.07862e+07              5.25537e-01 
   2    3.57010e+08                  0.00000e+00              -5.00000e-01

Constant factor =  7.38789e+10

DC gain =  9.99932e+05

......9......8......7......6......5......4......3......
181.6e-06     80.00% 
Convergence achieved in 2 iterations.
DC simulation time: CPU = 54 us, elapsed = 69.1414 us.
                      Poles (Hz)

           Real                       Imaginary                 Qfactor

   1   -2.81721e+06              +/- 5.75728e+06              1.13758e+00 
   2   -3.20582e+07              +/- 6.83378e+06              5.11234e-01 

                      Zeros (Hz)
                      at V(VOUT,0)/I5

           Real                       Imaginary                 Qfactor

   1   -9.71870e+07              +/- 3.17614e+07              5.26023e-01 
   2    3.59074e+08                  0.00000e+00              -5.00000e-01

Constant factor =  7.38789e+10

DC gain =  9.99934e+05

......9......8......7......6......5......4......3......2
186.14e-06    82.00% 
Convergence achieved in 2 iterations.
DC simulation time: CPU = 67 us, elapsed = 79.155 us.
                      Poles (Hz)

           Real                       Imaginary                 Qfactor

   1   -2.88873e+06              +/- 5.83304e+06              1.12665e+00 
   2   -3.25496e+07              +/- 5.92231e+06              5.08209e-01 

                      Zeros (Hz)
                      at V(VOUT,0)/I5

           Real                       Imaginary                 Qfactor

   1   -9.92441e+07              +/- 3.27375e+07              5.26501e-01 
   2    3.61117e+08                  0.00000e+00              -5.00000e-01

Constant factor =  7.38789e+10

DC gain =  9.99935e+05

......9......8......7......6......5......4......3......2.
190.68e-06    84.00% 
Convergence achieved in 2 iterations.
DC simulation time: CPU = 53 us, elapsed = 68.1877 us.
                      Poles (Hz)

           Real                       Imaginary                 Qfactor

   1   -2.96091e+06              +/- 5.90817e+06              1.11597e+00 
   2   -3.30403e+07              +/- 4.75634e+06              5.05154e-01 

                      Zeros (Hz)
                      at V(VOUT,0)/I5

           Real                       Imaginary                 Qfactor

   1   -1.01291e+08              +/- 3.37145e+07              5.26970e-01 
   2    3.63140e+08                  0.00000e+00              -5.00000e-01

Constant factor =  7.38789e+10

DC gain =  9.99937e+05

......9......8......7......6......5......4......3......2...
195.22e-06    86.00% 
Convergence achieved in 2 iterations.
DC simulation time: CPU = 65 us, elapsed = 93.2217 us.
                      Poles (Hz)

           Real                       Imaginary                 Qfactor

   1   -3.03378e+06              +/- 5.98271e+06              1.10554e+00 
   2   -3.35303e+07              +/- 3.05690e+06              5.02074e-01 

                      Zeros (Hz)
                      at V(VOUT,0)/I5

           Real                       Imaginary                 Qfactor

   1   -1.03327e+08              +/- 3.46923e+07              5.27430e-01 
   2    3.65142e+08                  0.00000e+00              -5.00000e-01

Constant factor =  7.38789e+10

DC gain =  9.99938e+05

......9......8......7......6......5......4......3......2....
199.76e-06    88.00% 
Convergence achieved in 2 iterations.
DC simulation time: CPU = 67 us, elapsed = 77.9629 us.
                      Poles (Hz)

           Real                       Imaginary                 Qfactor

   1   -3.10734e+06              +/- 6.05670e+06              1.09536e+00 
   2   -3.18370e+07                  0.00000e+00              5.00000e-01 
   3   -3.62022e+07                  0.00000e+00              5.00000e-01 

                      Zeros (Hz)
                      at V(VOUT,0)/I5

           Real                       Imaginary                 Qfactor

   1   -1.05354e+08              +/- 3.56708e+07              5.27882e-01 
   2    3.67124e+08                  0.00000e+00              -5.00000e-01

Constant factor =  7.38789e+10

DC gain =  9.99940e+05

......9......8......7......6......5......4......3......2......
204.3e-06     90.00% 
Convergence achieved in 2 iterations.
DC simulation time: CPU = 72 us, elapsed = 89.1685 us.
                      Poles (Hz)

           Real                       Imaginary                 Qfactor

   1   -3.18162e+06              +/- 6.13018e+06              1.08540e+00 
   2   -3.00691e+07                  0.00000e+00              5.00000e-01 
   3   -3.89472e+07                  0.00000e+00              5.00000e-01 

                      Zeros (Hz)
                      at V(VOUT,0)/I5

           Real                       Imaginary                 Qfactor

   1   -1.07371e+08              +/- 3.66498e+07              5.28326e-01 
   2    3.69087e+08                  0.00000e+00              -5.00000e-01

Constant factor =  7.38789e+10

DC gain =  9.99941e+05

......9......8......7......6......5......4......3......2......1
208.84e-06    92.00% 
Convergence achieved in 2 iterations.
DC simulation time: CPU = 60 us, elapsed = 73.1945 us.
                      Poles (Hz)

           Real                       Imaginary                 Qfactor

   1   -3.25662e+06              +/- 6.20319e+06              1.07567e+00 
   2   -2.90393e+07                  0.00000e+00              5.00000e-01 
   3   -4.09528e+07                  0.00000e+00              5.00000e-01 

                      Zeros (Hz)
                      at V(VOUT,0)/I5

           Real                       Imaginary                 Qfactor

   1   -1.09378e+08              +/- 3.76293e+07              5.28762e-01 
   2    3.71031e+08                  0.00000e+00              -5.00000e-01

Constant factor =  7.38789e+10

DC gain =  9.99942e+05

......9......8......7......6......5......4......3......2......1.
213.38e-06    94.00% 
Convergence achieved in 2 iterations.
DC simulation time: CPU = 61 us, elapsed = 78.9165 us.
                      Poles (Hz)

           Real                       Imaginary                 Qfactor

   1   -3.33238e+06              +/- 6.27578e+06              1.06615e+00 
   2   -2.82651e+07                  0.00000e+00              5.00000e-01 
   3   -4.27012e+07                  0.00000e+00              5.00000e-01 

                      Zeros (Hz)
                      at V(VOUT,0)/I5

           Real                       Imaginary                 Qfactor

   1   -1.11377e+08              +/- 3.86093e+07              5.29190e-01 
   2    3.72957e+08                  0.00000e+00              -5.00000e-01

Constant factor =  7.38789e+10

DC gain =  9.99944e+05

......9......8......7......6......5......4......3......2......1...
217.92e-06    96.00% 
Convergence achieved in 2 iterations.
DC simulation time: CPU = 70 us, elapsed = 1.65105 ms.
                      Poles (Hz)

           Real                       Imaginary                 Qfactor

   1   -3.40890e+06              +/- 6.34799e+06              1.05685e+00 
   2   -2.76292e+07                  0.00000e+00              5.00000e-01 
   3   -4.43098e+07                  0.00000e+00              5.00000e-01 

                      Zeros (Hz)
                      at V(VOUT,0)/I5

           Real                       Imaginary                 Qfactor

   1   -1.13366e+08              +/- 3.95896e+07              5.29612e-01 
   2    3.74865e+08                  0.00000e+00              -5.00000e-01

Constant factor =  7.38789e+10

DC gain =  9.99945e+05

......9......8......7......6......5......4......3......2......1....
222.46e-06    98.00% 
Convergence achieved in 2 iterations.
DC simulation time: CPU = 86 us, elapsed = 100.136 us.
                      Poles (Hz)

           Real                       Imaginary                 Qfactor

   1   -3.48621e+06              +/- 6.41985e+06              1.04775e+00 
   2   -2.70813e+07                  0.00000e+00              5.00000e-01 
   3   -4.58288e+07                  0.00000e+00              5.00000e-01 

                      Zeros (Hz)
                      at V(VOUT,0)/I5

           Real                       Imaginary                 Qfactor

   1   -1.15347e+08              +/- 4.05702e+07              5.30026e-01 
   2    3.76755e+08                  0.00000e+00              -5.00000e-01

Constant factor =  7.38789e+10

DC gain =  9.99946e+05

......9......8......7......6......5......4......3......2......1......
227e-06      100.00% 
Convergence achieved in 2 iterations.
DC simulation time: CPU = 66 us, elapsed = 77.9629 us.
                      Poles (Hz)

           Real                       Imaginary                 Qfactor

   1   -3.56433e+06              +/- 6.49140e+06              1.03885e+00 
   2   -2.65945e+07                  0.00000e+00              5.00000e-01 
   3   -4.72850e+07                  0.00000e+00              5.00000e-01 

                      Zeros (Hz)
                      at V(VOUT,0)/I5

           Real                       Imaginary                 Qfactor

   1   -1.17319e+08              +/- 4.15510e+07              5.30433e-01 
   2    3.78628e+08                  0.00000e+00              -5.00000e-01

Constant factor =  7.38789e+10

DC gain =  9.99947e+05

......9......8......7......6......5......4......3......2......1......0
Accumulated DC solution time =            30.6506 ms.
Intrinsic pz analysis time =              167.017 ms.
Total time required for pz analysis `pz': CPU = 54.197 ms, elapsed = 197.727 ms, util. = 27.4%.
Time accumulated: CPU = 417.086 ms, elapsed = 800.254 ms.
Peak resident memory used = 211 Mbytes.

modelParameter: writing model parameter values to rawfile.

Opening the PSF file ../psf/modelParameter.info ...
element: writing instance parameter values to rawfile.

Opening the PSF file ../psf/element.info ...
outputParameter: writing output parameter values to rawfile.

Opening the PSF file ../psf/outputParameter.info ...
designParamVals: writing netlist parameters to rawfile.

Opening the PSFASCII file ../psf/designParamVals.info ...
primitives: writing primitives to rawfile.

Opening the PSFASCII file ../psf/primitives.info.primitives ...
subckts: writing subcircuits to rawfile.

Opening the PSFASCII file ../psf/subckts.info.subckts ...
Licensing Information:
Lic Summary:
[09:43:35.288296] Cdslmd servers:3000@lic08.ug.kth.se
[09:43:35.288345] Feature usage summary:
[09:43:35.288345] Virtuoso_Multi_mode_Simulation


Aggregate audit (9:43:35 AM, Thur Nov 13, 2025):
Time used: CPU = 428 ms, elapsed = 855 ms, util. = 50.1%.
Time spent in licensing: elapsed = 70.5 ms, percentage of total = 8.24%.
Peak memory used = 212 Mbytes.
Simulation started at: 9:43:34 AM, Thur Nov 13, 2025, ended at: 9:43:35 AM, Thur Nov 13, 2025, with elapsed time (wall clock): 855 ms.
spectre completes with 0 errors, 0 warnings, and 4 notices.
